MODEL 1
REMARK VINA RESULT:    -5.204      0.000      0.000
REMARK INTER + INTRA:         -10.080
REMARK INTER:                  -9.919
REMARK INTRA:                  -0.160
REMARK UNBOUND:                -0.160
REMARK SMILES [H]/N=C(\N)c1ccc(CNC(=O)[C@@H]2CCCN2C(=O)CNC2CCCCCCC2)cc1
REMARK SMILES IDX 18 1 19 2 20 3 21 4 22 6 23 7 24 8 29 10 28 11 27 12 26 13
REMARK SMILES IDX 25 14 17 16 13 17 16 18 14 19 15 20 11 21 10 22 12 23 9 25
REMARK SMILES IDX 8 26 30 27 7 28 31 29 6 30 5 31 3 32 4 33 2 36 1 37
REMARK H PARENT 21 5 10 24 4 34 4 35
REMARK Flexibility Score:  112.900
ROOT
ATOM      1  C   UNL     1      17.693  -9.104  12.875  1.00  0.00     0.237 C 
ATOM      2  O   UNL     1      17.697  -8.457  11.849  1.00  0.00    -0.273 OA
ENDROOT
BRANCH   1   3
ATOM      3  C   UNL     1      18.950  -9.797  13.334  1.00  0.00     0.182 C 
BRANCH   3   4
ATOM      4  N   UNL     1      19.481 -10.623  12.241  1.00  0.00    -0.306 NA
ATOM      5  H   UNL     1      19.608 -10.074  11.403  1.00  0.00     0.123 HD
BRANCH   4   6
ATOM      6  C   UNL     1      18.614 -11.780  11.986  1.00  0.00     0.054 C 
BRANCH   6   7
ATOM      7  C   UNL     1      19.308 -13.054  12.470  1.00  0.00     0.019 C 
BRANCH   7   8
ATOM      8  C   UNL     1      20.124 -13.657  11.324  1.00  0.00     0.002 CG0
ATOM      9  G   UNL     1      19.317 -14.772  10.656  1.00  0.00     0.000 G0
ENDBRANCH   7   8
ENDBRANCH   6   7
BRANCH   6  10
ATOM     10  C   UNL     1      18.335 -11.889  10.485  1.00  0.00     0.019 C 
BRANCH  10  11
ATOM     11  C   UNL     1      16.951 -12.501  10.267  1.00  0.00     0.002 C 
BRANCH  11  12
ATOM     12  C   UNL     1      17.101 -13.952   9.805  1.00  0.00     0.000 C 
BRANCH  12  13
ATOM     13  C   UNL     1      18.560 -14.217   9.428  1.00  0.00     0.000 C 
BRANCH  13  14
ATOM     14  C   UNL     1      19.302 -14.800  10.633  1.00  0.00     0.000 CG0
ATOM     15  G   UNL     1      20.119 -13.698  11.309  1.00  0.00     0.000 G0
ENDBRANCH  13  14
ENDBRANCH  12  13
ENDBRANCH  11  12
ENDBRANCH  10  11
ENDBRANCH   6  10
ENDBRANCH   4   6
ENDBRANCH   3   4
ENDBRANCH   1   3
BRANCH   1  16
ATOM     16  N   UNL     1      16.564  -9.203  13.605  1.00  0.00    -0.330 N 
ATOM     17  C   UNL     1      15.483  -8.202  13.655  1.00  0.00     0.174 C 
ATOM     18  C   UNL     1      16.207 -10.328  14.481  1.00  0.00     0.120 C 
ATOM     19  C   UNL     1      14.781  -8.445  15.014  1.00  0.00     0.037 C 
ATOM     20  C   UNL     1      14.846  -9.991  15.126  1.00  0.00     0.024 C 
BRANCH  17  21
ATOM     21  C   UNL     1      16.054  -6.809  13.601  1.00  0.00     0.243 C 
ATOM     22  N   UNL     1      15.910  -6.064  12.488  1.00  0.00    -0.350 N 
ATOM     23  O   UNL     1      16.649  -6.360  14.559  1.00  0.00    -0.273 OA
ATOM     24  H   UNL     1      15.435  -6.423  11.722  1.00  0.00     0.163 HD
BRANCH  22  25
ATOM     25  C   UNL     1      16.471  -4.712  12.435  1.00  0.00     0.151 C 
BRANCH  25  26
ATOM     26  C   UNL     1      16.994  -4.440  11.047  1.00  0.00    -0.029 A 
ATOM     27  C   UNL     1      18.240  -4.913  10.676  1.00  0.00     0.006 A 
ATOM     28  C   UNL     1      16.226  -3.721  10.149  1.00  0.00     0.006 A 
ATOM     29  C   UNL     1      18.726  -4.667   9.409  1.00  0.00     0.012 A 
ATOM     30  C   UNL     1      16.704  -3.463   8.880  1.00  0.00     0.012 A 
ATOM     31  C   UNL     1      17.958  -3.939   8.501  1.00  0.00     0.016 A 
BRANCH  31  32
ATOM     32  C   UNL     1      18.473  -3.671   7.138  1.00  0.00     0.122 C 
ATOM     33  N   UNL     1      19.825  -3.738   6.887  1.00  0.00    -0.384 N 
ATOM     34  H   UNL     1      20.441  -3.963   7.603  1.00  0.00     0.158 HD
ATOM     35  H   UNL     1      20.162  -3.563   5.994  1.00  0.00     0.158 HD
BRANCH  32  36
ATOM     36  N   UNL     1      17.647  -3.371   6.178  1.00  0.00    -0.284 NA
ATOM     37  H   UNL     1      17.958  -3.347   5.259  1.00  0.00     0.189 HD
ENDBRANCH  32  36
ENDBRANCH  31  32
ENDBRANCH  25  26
ENDBRANCH  22  25
ENDBRANCH  17  21
ENDBRANCH   1  16
TORSDOF 9
ENDMDL
MODEL 2
REMARK VINA RESULT:    -4.969      1.444      2.084
REMARK INTER + INTRA:          -9.632
REMARK INTER:                  -9.160
REMARK INTRA:                  -0.472
REMARK UNBOUND:                -0.160
REMARK SMILES [H]/N=C(\N)c1ccc(CNC(=O)[C@@H]2CCCN2C(=O)CNC2CCCCCCC2)cc1
REMARK SMILES IDX 18 1 19 2 20 3 21 4 22 6 23 7 24 8 29 10 28 11 27 12 26 13
REMARK SMILES IDX 25 14 17 16 13 17 16 18 14 19 15 20 11 21 10 22 12 23 9 25
REMARK SMILES IDX 8 26 30 27 7 28 31 29 6 30 5 31 3 32 4 33 2 36 1 37
REMARK H PARENT 21 5 10 24 4 34 4 35
REMARK Flexibility Score:  112.900
ROOT
ATOM      1  C   UNL     1      18.135  -8.701  12.319  1.00  0.00     0.237 C 
ATOM      2  O   UNL     1      18.798  -8.247  11.411  1.00  0.00    -0.273 OA
ENDROOT
BRANCH   1   3
ATOM      3  C   UNL     1      17.095  -9.756  12.039  1.00  0.00     0.182 C 
BRANCH   3   4
ATOM      4  N   UNL     1      17.699 -10.843  11.256  1.00  0.00    -0.306 NA
ATOM      5  H   UNL     1      17.100 -11.112  10.490  1.00  0.00     0.123 HD
BRANCH   4   6
ATOM      6  C   UNL     1      18.012 -11.996  12.111  1.00  0.00     0.054 C 
BRANCH   6   7
ATOM      7  C   UNL     1      19.481 -12.383  11.927  1.00  0.00     0.019 C 
BRANCH   7   8
ATOM      8  C   UNL     1      19.977 -11.874  10.572  1.00  0.00     0.002 CG0
ATOM      9  G   UNL     1      19.831 -12.982   9.528  1.00  0.00     0.000 G0
ENDBRANCH   7   8
ENDBRANCH   6   7
BRANCH   6  10
ATOM     10  C   UNL     1      17.121 -13.177  11.722  1.00  0.00     0.019 C 
BRANCH  10  11
ATOM     11  C   UNL     1      16.633 -12.995  10.284  1.00  0.00     0.002 C 
BRANCH  11  12
ATOM     12  C   UNL     1      17.493 -13.840   9.342  1.00  0.00     0.000 C 
BRANCH  12  13
ATOM     13  C   UNL     1      18.865 -14.072   9.977  1.00  0.00     0.000 C 
BRANCH  13  14
ATOM     14  C   UNL     1      19.841 -12.999   9.492  1.00  0.00     0.000 CG0
ATOM     15  G   UNL     1      19.972 -11.910  10.558  1.00  0.00     0.000 G0
ENDBRANCH  13  14
ENDBRANCH  12  13
ENDBRANCH  11  12
ENDBRANCH  10  11
ENDBRANCH   6  10
ENDBRANCH   4   6
ENDBRANCH   3   4
ENDBRANCH   1   3
BRANCH   1  16
ATOM     16  N   UNL     1      18.328  -8.263  13.579  1.00  0.00    -0.330 N 
ATOM     17  C   UNL     1      17.318  -7.593  14.420  1.00  0.00     0.174 C 
ATOM     18  C   UNL     1      19.579  -8.374  14.342  1.00  0.00     0.120 C 
ATOM     19  C   UNL     1      18.139  -6.769  15.442  1.00  0.00     0.037 C 
ATOM     20  C   UNL     1      19.337  -7.716  15.717  1.00  0.00     0.024 C 
BRANCH  17  21
ATOM     21  C   UNL     1      16.457  -6.684  13.582  1.00  0.00     0.243 C 
ATOM     22  N   UNL     1      16.960  -5.527  13.108  1.00  0.00    -0.350 N 
ATOM     23  O   UNL     1      15.309  -6.991  13.338  1.00  0.00    -0.273 OA
ATOM     24  H   UNL     1      17.878  -5.281  13.304  1.00  0.00     0.163 HD
BRANCH  22  25
ATOM     25  C   UNL     1      16.121  -4.641  12.298  1.00  0.00     0.151 C 
BRANCH  25  26
ATOM     26  C   UNL     1      16.793  -4.385  10.973  1.00  0.00    -0.029 A 
ATOM     27  C   UNL     1      16.148  -3.633  10.008  1.00  0.00     0.006 A 
ATOM     28  C   UNL     1      18.054  -4.899  10.729  1.00  0.00     0.006 A 
ATOM     29  C   UNL     1      16.757  -3.396   8.793  1.00  0.00     0.012 A 
ATOM     30  C   UNL     1      18.671  -4.673   9.515  1.00  0.00     0.012 A 
ATOM     31  C   UNL     1      18.025  -3.915   8.539  1.00  0.00     0.016 A 
BRANCH  31  32
ATOM     32  C   UNL     1      18.685  -3.664   7.237  1.00  0.00     0.122 C 
ATOM     33  N   UNL     1      17.930  -3.328   6.135  1.00  0.00    -0.384 N 
ATOM     34  H   UNL     1      16.965  -3.255   6.212  1.00  0.00     0.158 HD
ATOM     35  H   UNL     1      18.362  -3.164   5.283  1.00  0.00     0.158 HD
BRANCH  32  36
ATOM     36  N   UNL     1      19.979  -3.762   7.134  1.00  0.00    -0.284 NA
ATOM     37  H   UNL     1      20.552  -3.311   7.775  1.00  0.00     0.189 HD
ENDBRANCH  32  36
ENDBRANCH  31  32
ENDBRANCH  25  26
ENDBRANCH  22  25
ENDBRANCH  17  21
ENDBRANCH   1  16
TORSDOF 9
ENDMDL
MODEL 3
REMARK VINA RESULT:    -4.869      3.010      6.766
REMARK INTER + INTRA:          -9.441
REMARK INTER:                  -8.680
REMARK INTRA:                  -0.760
REMARK UNBOUND:                -0.160
REMARK SMILES [H]/N=C(\N)c1ccc(CNC(=O)[C@@H]2CCCN2C(=O)CNC2CCCCCCC2)cc1
REMARK SMILES IDX 18 1 19 2 20 3 21 4 22 6 23 7 24 8 29 10 28 11 27 12 26 13
REMARK SMILES IDX 25 14 17 16 13 17 16 18 14 19 15 20 11 21 10 22 12 23 9 25
REMARK SMILES IDX 8 26 30 27 7 28 31 29 6 30 5 31 3 32 4 33 2 36 1 37
REMARK H PARENT 21 5 10 24 4 34 4 35
REMARK Flexibility Score:  112.900
ROOT
ATOM      1  C   UNL     1      17.270  -7.348  14.594  1.00  0.00     0.237 C 
ATOM      2  O   UNL     1      18.371  -7.308  15.100  1.00  0.00    -0.273 OA
ENDROOT
BRANCH   1   3
ATOM      3  C   UNL     1      16.179  -8.172  15.226  1.00  0.00     0.182 C 
BRANCH   3   4
ATOM      4  N   UNL     1      16.708  -9.495  15.581  1.00  0.00    -0.306 NA
ATOM      5  H   UNL     1      17.115  -9.949  14.776  1.00  0.00     0.123 HD
BRANCH   4   6
ATOM      6  C   UNL     1      15.666 -10.334  16.187  1.00  0.00     0.054 C 
BRANCH   6   7
ATOM      7  C   UNL     1      16.312 -11.339  17.143  1.00  0.00     0.019 C 
BRANCH   7   8
ATOM      8  C   UNL     1      17.769 -11.568  16.734  1.00  0.00     0.002 CG0
ATOM      9  G   UNL     1      17.881 -12.884  15.962  1.00  0.00     0.000 G0
ENDBRANCH   7   8
ENDBRANCH   6   7
BRANCH   6  10
ATOM     10  C   UNL     1      14.913 -11.087  15.088  1.00  0.00     0.019 C 
BRANCH  10  11
ATOM     11  C   UNL     1      15.899 -11.534  14.008  1.00  0.00     0.002 C 
BRANCH  11  12
ATOM     12  C   UNL     1      16.159 -13.035  14.144  1.00  0.00     0.000 C 
BRANCH  12  13
ATOM     13  C   UNL     1      16.475 -13.367  15.604  1.00  0.00     0.000 C 
BRANCH  13  14
ATOM     14  C   UNL     1      17.887 -12.886  15.944  1.00  0.00     0.000 CG0
ATOM     15  G   UNL     1      17.803 -11.573  16.725  1.00  0.00     0.000 G0
ENDBRANCH  13  14
ENDBRANCH  12  13
ENDBRANCH  11  12
ENDBRANCH  10  11
ENDBRANCH   6  10
ENDBRANCH   4   6
ENDBRANCH   3   4
ENDBRANCH   1   3
BRANCH   1  16
ATOM     16  N   UNL     1      17.022  -6.653  13.466  1.00  0.00    -0.330 N 
ATOM     17  C   UNL     1      17.083  -7.191  12.094  1.00  0.00     0.174 C 
ATOM     18  C   UNL     1      16.645  -5.233  13.399  1.00  0.00     0.120 C 
ATOM     19  C   UNL     1      17.339  -5.956  11.195  1.00  0.00     0.037 C 
ATOM     20  C   UNL     1      16.491  -4.870  11.907  1.00  0.00     0.024 C 
BRANCH  17  21
ATOM     21  C   UNL     1      18.214  -8.177  11.967  1.00  0.00     0.243 C 
ATOM     22  N   UNL     1      17.958  -9.500  11.960  1.00  0.00    -0.350 N 
ATOM     23  O   UNL     1      19.357  -7.780  11.875  1.00  0.00    -0.273 OA
ATOM     24  H   UNL     1      17.044  -9.818  12.034  1.00  0.00     0.163 HD
BRANCH  22  25
ATOM     25  C   UNL     1      19.059 -10.459  11.841  1.00  0.00     0.151 C 
BRANCH  25  26
ATOM     26  C   UNL     1      18.610 -11.640  11.020  1.00  0.00    -0.029 A 
ATOM     27  C   UNL     1      17.268 -11.808  10.730  1.00  0.00     0.006 A 
ATOM     28  C   UNL     1      19.543 -12.551  10.555  1.00  0.00     0.006 A 
ATOM     29  C   UNL     1      16.851 -12.888   9.980  1.00  0.00     0.012 A 
ATOM     30  C   UNL     1      19.137 -13.638   9.809  1.00  0.00     0.012 A 
ATOM     31  C   UNL     1      17.785 -13.811   9.513  1.00  0.00     0.016 A 
BRANCH  31  32
ATOM     32  C   UNL     1      17.344 -14.973   8.707  1.00  0.00     0.122 C 
ATOM     33  N   UNL     1      18.100 -16.124   8.687  1.00  0.00    -0.384 N 
ATOM     34  H   UNL     1      18.921 -16.175   9.202  1.00  0.00     0.158 HD
ATOM     35  H   UNL     1      17.811 -16.885   8.159  1.00  0.00     0.158 HD
BRANCH  32  36
ATOM     36  N   UNL     1      16.243 -14.905   8.017  1.00  0.00    -0.284 NA
ATOM     37  H   UNL     1      16.280 -14.838   7.049  1.00  0.00     0.189 HD
ENDBRANCH  32  36
ENDBRANCH  31  32
ENDBRANCH  25  26
ENDBRANCH  22  25
ENDBRANCH  17  21
ENDBRANCH   1  16
TORSDOF 9
ENDMDL
MODEL 4
REMARK VINA RESULT:    -4.857      3.032      5.735
REMARK INTER + INTRA:          -9.419
REMARK INTER:                  -8.707
REMARK INTRA:                  -0.712
REMARK UNBOUND:                -0.160
REMARK SMILES [H]/N=C(\N)c1ccc(CNC(=O)[C@@H]2CCCN2C(=O)CNC2CCCCCCC2)cc1
REMARK SMILES IDX 18 1 19 2 20 3 21 4 22 6 23 7 24 8 29 10 28 11 27 12 26 13
REMARK SMILES IDX 25 14 17 16 13 17 16 18 14 19 15 20 11 21 10 22 12 23 9 25
REMARK SMILES IDX 8 26 30 27 7 28 31 29 6 30 5 31 3 32 4 33 2 36 1 37
REMARK H PARENT 21 5 10 24 4 34 4 35
REMARK Flexibility Score:  112.900
ROOT
ATOM      1  C   UNL     1      18.726 -15.146  11.422  1.00  0.00     0.237 C 
ATOM      2  O   UNL     1      18.294 -15.727  12.394  1.00  0.00    -0.273 OA
ENDROOT
BRANCH   1   3
ATOM      3  C   UNL     1      20.183 -14.767  11.356  1.00  0.00     0.182 C 
BRANCH   3   4
ATOM      4  N   UNL     1      20.392 -13.498  12.065  1.00  0.00    -0.306 NA
ATOM      5  H   UNL     1      19.574 -12.910  12.002  1.00  0.00     0.123 HD
BRANCH   4   6
ATOM      6  C   UNL     1      21.582 -12.802  11.560  1.00  0.00     0.054 C 
BRANCH   6   7
ATOM      7  C   UNL     1      21.152 -11.559  10.778  1.00  0.00     0.019 C 
BRANCH   7   8
ATOM      8  C   UNL     1      20.478 -11.986   9.472  1.00  0.00     0.002 CG0
ATOM      9  G   UNL     1      21.460 -11.812   8.312  1.00  0.00     0.000 G0
ENDBRANCH   7   8
ENDBRANCH   6   7
BRANCH   6  10
ATOM     10  C   UNL     1      22.369 -13.737  10.640  1.00  0.00     0.019 C 
BRANCH  10  11
ATOM     11  C   UNL     1      23.667 -13.054  10.207  1.00  0.00     0.002 C 
BRANCH  11  12
ATOM     12  C   UNL     1      23.686 -12.913   8.684  1.00  0.00     0.000 C 
BRANCH  12  13
ATOM     13  C   UNL     1      22.272 -13.112   8.136  1.00  0.00     0.000 C 
BRANCH  13  14
ATOM     14  C   UNL     1      21.474 -11.817   8.298  1.00  0.00     0.000 CG0
ATOM     15  G   UNL     1      20.496 -11.964   9.465  1.00  0.00     0.000 G0
ENDBRANCH  13  14
ENDBRANCH  12  13
ENDBRANCH  11  12
ENDBRANCH  10  11
ENDBRANCH   6  10
ENDBRANCH   4   6
ENDBRANCH   3   4
ENDBRANCH   1   3
BRANCH   1  16
ATOM     16  N   UNL     1      17.903 -14.840  10.399  1.00  0.00    -0.330 N 
ATOM     17  C   UNL     1      17.322 -13.511  10.132  1.00  0.00     0.174 C 
ATOM     18  C   UNL     1      17.438 -15.775   9.365  1.00  0.00     0.120 C 
ATOM     19  C   UNL     1      16.042 -13.797   9.308  1.00  0.00     0.037 C 
ATOM     20  C   UNL     1      16.499 -14.988   8.425  1.00  0.00     0.024 C 
BRANCH  17  21
ATOM     21  C   UNL     1      16.971 -12.822  11.425  1.00  0.00     0.243 C 
ATOM     22  N   UNL     1      17.655 -11.728  11.813  1.00  0.00    -0.350 N 
ATOM     23  O   UNL     1      16.074 -13.255  12.118  1.00  0.00    -0.273 OA
ATOM     24  H   UNL     1      18.372 -11.382  11.259  1.00  0.00     0.163 HD
BRANCH  22  25
ATOM     25  C   UNL     1      17.316 -11.062  13.073  1.00  0.00     0.151 C 
BRANCH  25  26
ATOM     26  C   UNL     1      17.172  -9.581  12.836  1.00  0.00    -0.029 A 
ATOM     27  C   UNL     1      18.047  -8.931  11.985  1.00  0.00     0.006 A 
ATOM     28  C   UNL     1      16.160  -8.878  13.465  1.00  0.00     0.006 A 
ATOM     29  C   UNL     1      17.921  -7.575  11.764  1.00  0.00     0.012 A 
ATOM     30  C   UNL     1      16.027  -7.520  13.256  1.00  0.00     0.012 A 
ATOM     31  C   UNL     1      16.907  -6.860  12.400  1.00  0.00     0.016 A 
BRANCH  31  32
ATOM     32  C   UNL     1      16.765  -5.404  12.167  1.00  0.00     0.122 C 
ATOM     33  N   UNL     1      16.453  -4.566  13.214  1.00  0.00    -0.384 N 
ATOM     34  H   UNL     1      16.327  -4.929  14.105  1.00  0.00     0.158 HD
ATOM     35  H   UNL     1      16.360  -3.612  13.061  1.00  0.00     0.158 HD
BRANCH  32  36
ATOM     36  N   UNL     1      16.935  -4.917  10.971  1.00  0.00    -0.284 NA
ATOM     37  H   UNL     1      17.045  -3.961  10.848  1.00  0.00     0.189 HD
ENDBRANCH  32  36
ENDBRANCH  31  32
ENDBRANCH  25  26
ENDBRANCH  22  25
ENDBRANCH  17  21
ENDBRANCH   1  16
TORSDOF 9
ENDMDL
MODEL 5
REMARK VINA RESULT:    -4.789      3.156      7.318
REMARK INTER + INTRA:          -9.290
REMARK INTER:                  -8.863
REMARK INTRA:                  -0.426
REMARK UNBOUND:                -0.160
REMARK SMILES [H]/N=C(\N)c1ccc(CNC(=O)[C@@H]2CCCN2C(=O)CNC2CCCCCCC2)cc1
REMARK SMILES IDX 18 1 19 2 20 3 21 4 22 6 23 7 24 8 29 10 28 11 27 12 26 13
REMARK SMILES IDX 25 14 17 16 13 17 16 18 14 19 15 20 11 21 10 22 12 23 9 25
REMARK SMILES IDX 8 26 30 27 7 28 31 29 6 30 5 31 3 32 4 33 2 36 1 37
REMARK H PARENT 21 5 10 24 4 34 4 35
REMARK Flexibility Score:  112.900
ROOT
ATOM      1  C   UNL     1      16.375  -6.700  13.696  1.00  0.00     0.237 C 
ATOM      2  O   UNL     1      16.918  -6.466  14.754  1.00  0.00    -0.273 OA
ENDROOT
BRANCH   1   3
ATOM      3  C   UNL     1      15.268  -7.721  13.626  1.00  0.00     0.182 C 
BRANCH   3   4
ATOM      4  N   UNL     1      15.159  -8.414  14.917  1.00  0.00    -0.306 NA
ATOM      5  H   UNL     1      16.048  -8.428  15.395  1.00  0.00     0.123 HD
BRANCH   4   6
ATOM      6  C   UNL     1      14.634  -9.774  14.741  1.00  0.00     0.054 C 
BRANCH   6   7
ATOM      7  C   UNL     1      14.124 -10.300  16.084  1.00  0.00     0.019 C 
BRANCH   7   8
ATOM      8  C   UNL     1      14.859  -9.591  17.223  1.00  0.00     0.002 CG0
ATOM      9  G   UNL     1      15.950 -10.510  17.776  1.00  0.00     0.000 G0
ENDBRANCH   7   8
ENDBRANCH   6   7
BRANCH   6  10
ATOM     10  C   UNL     1      15.746 -10.688  14.223  1.00  0.00     0.019 C 
BRANCH  10  11
ATOM     11  C   UNL     1      17.096 -10.196  14.747  1.00  0.00     0.002 C 
BRANCH  11  12
ATOM     12  C   UNL     1      17.549 -11.087  15.905  1.00  0.00     0.000 C 
BRANCH  12  13
ATOM     13  C   UNL     1      16.326 -11.556  16.696  1.00  0.00     0.000 C 
BRANCH  13  14
ATOM     14  C   UNL     1      15.978 -10.516  17.763  1.00  0.00     0.000 CG0
ATOM     15  G   UNL     1      14.880  -9.592  17.235  1.00  0.00     0.000 G0
ENDBRANCH  13  14
ENDBRANCH  12  13
ENDBRANCH  11  12
ENDBRANCH  10  11
ENDBRANCH   6  10
ENDBRANCH   4   6
ENDBRANCH   3   4
ENDBRANCH   1   3
BRANCH   1  16
ATOM     16  N   UNL     1      16.761  -6.048  12.581  1.00  0.00    -0.330 N 
ATOM     17  C   UNL     1      17.348  -6.671  11.380  1.00  0.00     0.174 C 
ATOM     18  C   UNL     1      16.666  -4.598  12.361  1.00  0.00     0.120 C 
ATOM     19  C   UNL     1      18.157  -5.538  10.701  1.00  0.00     0.037 C 
ATOM     20  C   UNL     1      17.248  -4.307  10.961  1.00  0.00     0.024 C 
BRANCH  17  21
ATOM     21  C   UNL     1      18.260  -7.805  11.770  1.00  0.00     0.243 C 
ATOM     22  N   UNL     1      18.023  -9.050  11.310  1.00  0.00    -0.350 N 
ATOM     23  O   UNL     1      19.206  -7.599  12.502  1.00  0.00    -0.273 OA
ATOM     24  H   UNL     1      17.266  -9.215  10.725  1.00  0.00     0.163 HD
BRANCH  22  25
ATOM     25  C   UNL     1      18.906 -10.153  11.694  1.00  0.00     0.151 C 
BRANCH  25  26
ATOM     26  C   UNL     1      18.522 -11.394  10.930  1.00  0.00    -0.029 A 
ATOM     27  C   UNL     1      19.495 -12.132  10.279  1.00  0.00     0.006 A 
ATOM     28  C   UNL     1      17.198 -11.794  10.885  1.00  0.00     0.006 A 
ATOM     29  C   UNL     1      19.149 -13.268   9.577  1.00  0.00     0.012 A 
ATOM     30  C   UNL     1      16.840 -12.925  10.181  1.00  0.00     0.012 A 
ATOM     31  C   UNL     1      17.816 -13.673   9.524  1.00  0.00     0.016 A 
BRANCH  31  32
ATOM     32  C   UNL     1      17.438 -14.892   8.772  1.00  0.00     0.122 C 
ATOM     33  N   UNL     1      16.294 -14.901   8.006  1.00  0.00    -0.384 N 
ATOM     34  H   UNL     1      15.735 -14.109   7.958  1.00  0.00     0.158 HD
ATOM     35  H   UNL     1      16.046 -15.700   7.514  1.00  0.00     0.158 HD
BRANCH  32  36
ATOM     36  N   UNL     1      18.188 -15.954   8.836  1.00  0.00    -0.284 NA
ATOM     37  H   UNL     1      18.764 -16.187   8.091  1.00  0.00     0.189 HD
ENDBRANCH  32  36
ENDBRANCH  31  32
ENDBRANCH  25  26
ENDBRANCH  22  25
ENDBRANCH  17  21
ENDBRANCH   1  16
TORSDOF 9
ENDMDL
