13U
     RDKit          3D

 65 67  0  0  0  0  0  0  0  0999 V2000
   17.9580   -3.3470    5.2590 H   0  0  0  0  0  0  0  0  0  0  0  0
   17.6470   -3.3710    6.1780 N   0  0  0  0  0  0  0  0  0  0  0  0
   18.4730   -3.6710    7.1380 C   0  0  0  0  0  0  0  0  0  0  0  0
   19.8250   -3.7380    6.8870 N   0  0  0  0  0  0  0  0  0  0  0  0
   17.9580   -3.9390    8.5010 C   0  0  0  0  0  0  0  0  0  0  0  0
   16.7040   -3.4630    8.8800 C   0  0  0  0  0  0  0  0  0  0  0  0
   16.2260   -3.7210   10.1490 C   0  0  0  0  0  0  0  0  0  0  0  0
   16.9940   -4.4400   11.0470 C   0  0  0  0  0  0  0  0  0  0  0  0
   16.4710   -4.7120   12.4350 C   0  0  0  0  0  0  0  0  0  0  0  0
   15.9100   -6.0640   12.4880 N   0  0  0  0  0  0  0  0  0  0  0  0
   16.0540   -6.8090   13.6010 C   0  0  0  0  0  0  0  0  0  0  0  0
   16.6490   -6.3600   14.5590 O   0  0  0  0  0  0  0  0  0  0  0  0
   15.4830   -8.2020   13.6550 C   0  0  2  0  0  0  0  0  0  0  0  0
   14.7810   -8.4450   15.0140 C   0  0  0  0  0  0  0  0  0  0  0  0
   14.8460   -9.9910   15.1260 C   0  0  0  0  0  0  0  0  0  0  0  0
   16.2070  -10.3280   14.4810 C   0  0  0  0  0  0  0  0  0  0  0  0
   16.5640   -9.2030   13.6050 N   0  0  0  0  0  0  0  0  0  0  0  0
   17.6930   -9.1040   12.8750 C   0  0  0  0  0  0  0  0  0  0  0  0
   17.6970   -8.4570   11.8490 O   0  0  0  0  0  0  0  0  0  0  0  0
   18.9500   -9.7970   13.3340 C   0  0  0  0  0  0  0  0  0  0  0  0
   19.4810  -10.6230   12.2410 N   0  0  0  0  0  0  0  0  0  0  0  0
   18.6140  -11.7800   11.9860 C   0  0  0  0  0  0  0  0  0  0  0  0
   19.3080  -13.0540   12.4700 C   0  0  0  0  0  0  0  0  0  0  0  0
   20.1240  -13.6570   11.3240 C   0  0  0  0  0  0  0  0  0  0  0  0
   19.3020  -14.8000   10.6330 C   0  0  0  0  0  0  0  0  0  0  0  0
   18.5600  -14.2170    9.4280 C   0  0  0  0  0  0  0  0  0  0  0  0
   17.1010  -13.9520    9.8050 C   0  0  0  0  0  0  0  0  0  0  0  0
   16.9510  -12.5010   10.2670 C   0  0  0  0  0  0  0  0  0  0  0  0
   18.3350  -11.8890   10.4850 C   0  0  0  0  0  0  0  0  0  0  0  0
   18.2400   -4.9130   10.6760 C   0  0  0  0  0  0  0  0  0  0  0  0
   18.7260   -4.6670    9.4090 C   0  0  0  0  0  0  0  0  0  0  0  0
   20.4410   -3.9630    7.6030 H   0  0  0  0  0  0  0  0  0  0  0  0
   20.1620   -3.5630    5.9940 H   0  0  0  0  0  0  0  0  0  0  0  0
   16.0967   -2.8831    8.1695 H   0  0  0  0  0  0  0  0  0  0  0  0
   15.2326   -3.3542   10.4466 H   0  0  0  0  0  0  0  0  0  0  0  0
   17.2938   -4.6275   13.1602 H   0  0  0  0  0  0  0  0  0  0  0  0
   15.6883   -3.9798   12.6824 H   0  0  0  0  0  0  0  0  0  0  0  0
   15.4350   -6.4230   11.7220 H   0  0  0  0  0  0  0  0  0  0  0  0
   14.7901   -8.2953   12.8058 H   0  0  0  0  0  0  0  0  0  0  0  0
   15.3235   -7.9596   15.8386 H   0  0  0  0  0  0  0  0  0  0  0  0
   13.7621   -8.0344   15.0713 H   0  0  0  0  0  0  0  0  0  0  0  0
   14.8161  -10.3130   16.1774 H   0  0  0  0  0  0  0  0  0  0  0  0
   13.9986  -10.4971   14.6404 H   0  0  0  0  0  0  0  0  0  0  0  0
   16.9722  -10.4558   15.2609 H   0  0  0  0  0  0  0  0  0  0  0  0
   16.1458  -11.2648   13.9077 H   0  0  0  0  0  0  0  0  0  0  0  0
   19.6990   -9.0448   13.6223 H   0  0  0  0  0  0  0  0  0  0  0  0
   18.7210  -10.4367   14.1990 H   0  0  0  0  0  0  0  0  0  0  0  0
   19.6080  -10.0740   11.4030 H   0  0  0  0  0  0  0  0  0  0  0  0
   17.6644  -11.6521   12.5263 H   0  0  0  0  0  0  0  0  0  0  0  0
   19.9772  -12.8111   13.3085 H   0  0  0  0  0  0  0  0  0  0  0  0
   18.5516  -13.7798   12.8032 H   0  0  0  0  0  0  0  0  0  0  0  0
   20.3523  -12.8737   10.5862 H   0  0  0  0  0  0  0  0  0  0  0  0
   21.0607  -14.0729   11.7237 H   0  0  0  0  0  0  0  0  0  0  0  0
   19.9844  -15.5948   10.2974 H   0  0  0  0  0  0  0  0  0  0  0  0
   18.5799  -15.2238   11.3464 H   0  0  0  0  0  0  0  0  0  0  0  0
   19.0374  -13.2734    9.1252 H   0  0  0  0  0  0  0  0  0  0  0  0
   18.5983  -14.9325    8.5933 H   0  0  0  0  0  0  0  0  0  0  0  0
   16.4582  -14.1268    8.9296 H   0  0  0  0  0  0  0  0  0  0  0  0
   16.8029  -14.6294   10.6188 H   0  0  0  0  0  0  0  0  0  0  0  0
   16.4126  -11.9257    9.4994 H   0  0  0  0  0  0  0  0  0  0  0  0
   16.3856  -12.4735   11.2102 H   0  0  0  0  0  0  0  0  0  0  0  0
   19.0969  -12.5289   10.0160 H   0  0  0  0  0  0  0  0  0  0  0  0
   18.3683  -10.8871   10.0322 H   0  0  0  0  0  0  0  0  0  0  0  0
   18.8448   -5.4869   11.3936 H   0  0  0  0  0  0  0  0  0  0  0  0
   19.7168   -5.0441    9.1155 H   0  0  0  0  0  0  0  0  0  0  0  0
  1  2  1  0
  2  3  2  0
  3  4  1  0
  3  5  1  0
  5  6  2  0
  6  7  1  0
  7  8  2  0
  8  9  1  0
  9 10  1  0
 10 11  1  0
 11 12  2  0
 11 13  1  0
 13 14  1  0
 14 15  1  0
 15 16  1  0
 16 17  1  0
 17 18  1  0
 18 19  2  0
 18 20  1  0
 20 21  1  0
 21 22  1  0
 22 23  1  0
 23 24  1  0
 24 25  1  0
 25 26  1  0
 26 27  1  0
 27 28  1  0
 28 29  1  0
  8 30  1  0
 30 31  2  0
 31  5  1  0
 17 13  1  0
 29 22  1  0
  4 32  1  0
  4 33  1  0
  6 34  1  0
  7 35  1  0
  9 36  1  0
  9 37  1  0
 10 38  1  0
 13 39  1  6
 14 40  1  0
 14 41  1  0
 15 42  1  0
 15 43  1  0
 16 44  1  0
 16 45  1  0
 20 46  1  0
 20 47  1  0
 21 48  1  0
 22 49  1  0
 23 50  1  0
 23 51  1  0
 24 52  1  0
 24 53  1  0
 25 54  1  0
 25 55  1  0
 26 56  1  0
 26 57  1  0
 27 58  1  0
 27 59  1  0
 28 60  1  0
 28 61  1  0
 29 62  1  0
 29 63  1  0
 30 64  1  0
 31 65  1  0
M  END
>  <meeko>  (1) 
{"is_sidechain": [false], "free_energy": -5.204, "intermolecular_energy": -9.919, "internal_energy": -0.16}

$$$$
13U
     RDKit          3D

 65 67  0  0  0  0  0  0  0  0999 V2000
   20.5520   -3.3110    7.7750 H   0  0  0  0  0  0  0  0  0  0  0  0
   19.9790   -3.7620    7.1340 N   0  0  0  0  0  0  0  0  0  0  0  0
   18.6850   -3.6640    7.2370 C   0  0  0  0  0  0  0  0  0  0  0  0
   17.9300   -3.3280    6.1350 N   0  0  0  0  0  0  0  0  0  0  0  0
   18.0250   -3.9150    8.5390 C   0  0  0  0  0  0  0  0  0  0  0  0
   18.6710   -4.6730    9.5150 C   0  0  0  0  0  0  0  0  0  0  0  0
   18.0540   -4.8990   10.7290 C   0  0  0  0  0  0  0  0  0  0  0  0
   16.7930   -4.3850   10.9730 C   0  0  0  0  0  0  0  0  0  0  0  0
   16.1210   -4.6410   12.2980 C   0  0  0  0  0  0  0  0  0  0  0  0
   16.9600   -5.5270   13.1080 N   0  0  0  0  0  0  0  0  0  0  0  0
   16.4570   -6.6840   13.5820 C   0  0  0  0  0  0  0  0  0  0  0  0
   15.3090   -6.9910   13.3380 O   0  0  0  0  0  0  0  0  0  0  0  0
   17.3180   -7.5930   14.4200 C   0  0  2  0  0  0  0  0  0  0  0  0
   18.1390   -6.7690   15.4420 C   0  0  0  0  0  0  0  0  0  0  0  0
   19.3370   -7.7160   15.7170 C   0  0  0  0  0  0  0  0  0  0  0  0
   19.5790   -8.3740   14.3420 C   0  0  0  0  0  0  0  0  0  0  0  0
   18.3280   -8.2630   13.5790 N   0  0  0  0  0  0  0  0  0  0  0  0
   18.1350   -8.7010   12.3190 C   0  0  0  0  0  0  0  0  0  0  0  0
   18.7980   -8.2470   11.4110 O   0  0  0  0  0  0  0  0  0  0  0  0
   17.0950   -9.7560   12.0390 C   0  0  0  0  0  0  0  0  0  0  0  0
   17.6990  -10.8430   11.2560 N   0  0  0  0  0  0  0  0  0  0  0  0
   18.0120  -11.9960   12.1110 C   0  0  0  0  0  0  0  0  0  0  0  0
   19.4810  -12.3830   11.9270 C   0  0  0  0  0  0  0  0  0  0  0  0
   19.9770  -11.8740   10.5720 C   0  0  0  0  0  0  0  0  0  0  0  0
   19.8410  -12.9990    9.4920 C   0  0  0  0  0  0  0  0  0  0  0  0
   18.8650  -14.0720    9.9770 C   0  0  0  0  0  0  0  0  0  0  0  0
   17.4930  -13.8400    9.3420 C   0  0  0  0  0  0  0  0  0  0  0  0
   16.6330  -12.9950   10.2840 C   0  0  0  0  0  0  0  0  0  0  0  0
   17.1210  -13.1770   11.7220 C   0  0  0  0  0  0  0  0  0  0  0  0
   16.1480   -3.6330   10.0080 C   0  0  0  0  0  0  0  0  0  0  0  0
   16.7570   -3.3960    8.7930 C   0  0  0  0  0  0  0  0  0  0  0  0
   16.9650   -3.2550    6.2120 H   0  0  0  0  0  0  0  0  0  0  0  0
   18.3620   -3.1640    5.2830 H   0  0  0  0  0  0  0  0  0  0  0  0
   19.6697   -5.0898    9.3180 H   0  0  0  0  0  0  0  0  0  0  0  0
   18.5659   -5.4888   11.5037 H   0  0  0  0  0  0  0  0  0  0  0  0
   15.9778   -3.6871   12.8268 H   0  0  0  0  0  0  0  0  0  0  0  0
   15.1437   -5.1162   12.1276 H   0  0  0  0  0  0  0  0  0  0  0  0
   17.8780   -5.2810   13.3040 H   0  0  0  0  0  0  0  0  0  0  0  0
   16.6418   -8.3090   14.9100 H   0  0  0  0  0  0  0  0  0  0  0  0
   18.4733   -5.8137   15.0112 H   0  0  0  0  0  0  0  0  0  0  0  0
   17.5761   -6.4864   16.3439 H   0  0  0  0  0  0  0  0  0  0  0  0
   20.2211   -7.1504   16.0462 H   0  0  0  0  0  0  0  0  0  0  0  0
   19.1406   -8.4436   16.5183 H   0  0  0  0  0  0  0  0  0  0  0  0
   20.3904   -7.8529   13.8127 H   0  0  0  0  0  0  0  0  0  0  0  0
   19.8712   -9.4279   14.4603 H   0  0  0  0  0  0  0  0  0  0  0  0
   16.7140  -10.1569   12.9899 H   0  0  0  0  0  0  0  0  0  0  0  0
   16.2652   -9.3113   11.4700 H   0  0  0  0  0  0  0  0  0  0  0  0
   17.1000  -11.1120   10.4900 H   0  0  0  0  0  0  0  0  0  0  0  0
   17.8310  -11.7318   13.1634 H   0  0  0  0  0  0  0  0  0  0  0  0
   20.0822  -11.9323   12.7304 H   0  0  0  0  0  0  0  0  0  0  0  0
   19.5792  -13.4779   11.9655 H   0  0  0  0  0  0  0  0  0  0  0  0
   19.3767  -11.0037   10.2684 H   0  0  0  0  0  0  0  0  0  0  0  0
   21.0350  -11.5863   10.6609 H   0  0  0  0  0  0  0  0  0  0  0  0
   19.4658  -12.5615    8.5551 H   0  0  0  0  0  0  0  0  0  0  0  0
   20.8263  -13.4570    9.3205 H   0  0  0  0  0  0  0  0  0  0  0  0
   19.2392  -15.0652    9.6881 H   0  0  0  0  0  0  0  0  0  0  0  0
   18.7755  -14.0173   11.0720 H   0  0  0  0  0  0  0  0  0  0  0  0
   17.6162  -13.3120    8.3849 H   0  0  0  0  0  0  0  0  0  0  0  0
   17.0016  -14.8082    9.1653 H   0  0  0  0  0  0  0  0  0  0  0  0
   16.7128  -11.9350   10.0013 H   0  0  0  0  0  0  0  0  0  0  0  0
   15.5837  -13.3167   10.2097 H   0  0  0  0  0  0  0  0  0  0  0  0
   16.2559  -13.2226   12.3999 H   0  0  0  0  0  0  0  0  0  0  0  0
   17.6963  -14.1114   11.7986 H   0  0  0  0  0  0  0  0  0  0  0  0
   15.1474   -3.2230   10.2097 H   0  0  0  0  0  0  0  0  0  0  0  0
   16.2425   -2.7984    8.0261 H   0  0  0  0  0  0  0  0  0  0  0  0
  1  2  1  0
  2  3  2  0
  3  4  1  0
  3  5  1  0
  5  6  2  0
  6  7  1  0
  7  8  2  0
  8  9  1  0
  9 10  1  0
 10 11  1  0
 11 12  2  0
 11 13  1  0
 13 14  1  0
 14 15  1  0
 15 16  1  0
 16 17  1  0
 17 18  1  0
 18 19  2  0
 18 20  1  0
 20 21  1  0
 21 22  1  0
 22 23  1  0
 23 24  1  0
 24 25  1  0
 25 26  1  0
 26 27  1  0
 27 28  1  0
 28 29  1  0
  8 30  1  0
 30 31  2  0
 31  5  1  0
 17 13  1  0
 29 22  1  0
  4 32  1  0
  4 33  1  0
  6 34  1  0
  7 35  1  0
  9 36  1  0
  9 37  1  0
 10 38  1  0
 13 39  1  1
 14 40  1  0
 14 41  1  0
 15 42  1  0
 15 43  1  0
 16 44  1  0
 16 45  1  0
 20 46  1  0
 20 47  1  0
 21 48  1  0
 22 49  1  0
 23 50  1  0
 23 51  1  0
 24 52  1  0
 24 53  1  0
 25 54  1  0
 25 55  1  0
 26 56  1  0
 26 57  1  0
 27 58  1  0
 27 59  1  0
 28 60  1  0
 28 61  1  0
 29 62  1  0
 29 63  1  0
 30 64  1  0
 31 65  1  0
M  END
>  <meeko>  (2) 
{"is_sidechain": [false], "free_energy": -4.969, "intermolecular_energy": -9.16, "internal_energy": -0.472}

$$$$
13U
     RDKit          3D

 65 67  0  0  0  0  0  0  0  0999 V2000
   16.2800  -14.8380    7.0490 H   0  0  0  0  0  0  0  0  0  0  0  0
   16.2430  -14.9050    8.0170 N   0  0  0  0  0  0  0  0  0  0  0  0
   17.3440  -14.9730    8.7070 C   0  0  0  0  0  0  0  0  0  0  0  0
   18.1000  -16.1240    8.6870 N   0  0  0  0  0  0  0  0  0  0  0  0
   17.7850  -13.8110    9.5130 C   0  0  0  0  0  0  0  0  0  0  0  0
   19.1370  -13.6380    9.8090 C   0  0  0  0  0  0  0  0  0  0  0  0
   19.5430  -12.5510   10.5550 C   0  0  0  0  0  0  0  0  0  0  0  0
   18.6100  -11.6400   11.0200 C   0  0  0  0  0  0  0  0  0  0  0  0
   19.0590  -10.4590   11.8410 C   0  0  0  0  0  0  0  0  0  0  0  0
   17.9580   -9.5000   11.9600 N   0  0  0  0  0  0  0  0  0  0  0  0
   18.2140   -8.1770   11.9670 C   0  0  0  0  0  0  0  0  0  0  0  0
   19.3570   -7.7800   11.8750 O   0  0  0  0  0  0  0  0  0  0  0  0
   17.0830   -7.1910   12.0940 C   0  0  2  0  0  0  0  0  0  0  0  0
   17.3390   -5.9560   11.1950 C   0  0  0  0  0  0  0  0  0  0  0  0
   16.4910   -4.8700   11.9070 C   0  0  0  0  0  0  0  0  0  0  0  0
   16.6450   -5.2330   13.3990 C   0  0  0  0  0  0  0  0  0  0  0  0
   17.0220   -6.6530   13.4660 N   0  0  0  0  0  0  0  0  0  0  0  0
   17.2700   -7.3480   14.5940 C   0  0  0  0  0  0  0  0  0  0  0  0
   18.3710   -7.3080   15.1000 O   0  0  0  0  0  0  0  0  0  0  0  0
   16.1790   -8.1720   15.2260 C   0  0  0  0  0  0  0  0  0  0  0  0
   16.7080   -9.4950   15.5810 N   0  0  0  0  0  0  0  0  0  0  0  0
   15.6660  -10.3340   16.1870 C   0  0  0  0  0  0  0  0  0  0  0  0
   16.3120  -11.3390   17.1430 C   0  0  0  0  0  0  0  0  0  0  0  0
   17.7690  -11.5680   16.7340 C   0  0  0  0  0  0  0  0  0  0  0  0
   17.8870  -12.8860   15.9440 C   0  0  0  0  0  0  0  0  0  0  0  0
   16.4750  -13.3670   15.6040 C   0  0  0  0  0  0  0  0  0  0  0  0
   16.1590  -13.0350   14.1440 C   0  0  0  0  0  0  0  0  0  0  0  0
   15.8990  -11.5340   14.0080 C   0  0  0  0  0  0  0  0  0  0  0  0
   14.9130  -11.0870   15.0880 C   0  0  0  0  0  0  0  0  0  0  0  0
   17.2680  -11.8080   10.7300 C   0  0  0  0  0  0  0  0  0  0  0  0
   16.8510  -12.8880    9.9800 C   0  0  0  0  0  0  0  0  0  0  0  0
   18.9210  -16.1750    9.2020 H   0  0  0  0  0  0  0  0  0  0  0  0
   17.8110  -16.8850    8.1590 H   0  0  0  0  0  0  0  0  0  0  0  0
   19.8779  -14.3667    9.4484 H   0  0  0  0  0  0  0  0  0  0  0  0
   20.6100  -12.4078   10.7808 H   0  0  0  0  0  0  0  0  0  0  0  0
   19.3571  -10.8011   12.8430 H   0  0  0  0  0  0  0  0  0  0  0  0
   19.9154   -9.9748   11.3490 H   0  0  0  0  0  0  0  0  0  0  0  0
   17.0440   -9.8180   12.0340 H   0  0  0  0  0  0  0  0  0  0  0  0
   16.1625   -7.7247   11.8148 H   0  0  0  0  0  0  0  0  0  0  0  0
   18.4052   -5.6858   11.1785 H   0  0  0  0  0  0  0  0  0  0  0  0
   17.0738   -6.1092   10.1385 H   0  0  0  0  0  0  0  0  0  0  0  0
   16.8848   -3.8635   11.7022 H   0  0  0  0  0  0  0  0  0  0  0  0
   15.4436   -4.8487   11.5717 H   0  0  0  0  0  0  0  0  0  0  0  0
   17.4290   -4.6131   13.8584 H   0  0  0  0  0  0  0  0  0  0  0  0
   15.7060   -5.0529   13.9430 H   0  0  0  0  0  0  0  0  0  0  0  0
   15.8166   -7.6665   16.1333 H   0  0  0  0  0  0  0  0  0  0  0  0
   15.3483   -8.2882   14.5143 H   0  0  0  0  0  0  0  0  0  0  0  0
   17.1150   -9.9490   14.7760 H   0  0  0  0  0  0  0  0  0  0  0  0
   14.9620   -9.6983   16.7439 H   0  0  0  0  0  0  0  0  0  0  0  0
   16.2769  -10.9439   18.1690 H   0  0  0  0  0  0  0  0  0  0  0  0
   15.7644  -12.2920   17.0982 H   0  0  0  0  0  0  0  0  0  0  0  0
   18.1072  -10.7325   16.1035 H   0  0  0  0  0  0  0  0  0  0  0  0
   18.3951  -11.6275   17.6365 H   0  0  0  0  0  0  0  0  0  0  0  0
   18.4555  -12.7155   15.0179 H   0  0  0  0  0  0  0  0  0  0  0  0
   18.4124  -13.6433   16.5444 H   0  0  0  0  0  0  0  0  0  0  0  0
   16.4125  -14.4549   15.7542 H   0  0  0  0  0  0  0  0  0  0  0  0
   15.7491  -12.8633   16.2592 H   0  0  0  0  0  0  0  0  0  0  0  0
   17.0124  -13.3183   13.5104 H   0  0  0  0  0  0  0  0  0  0  0  0
   15.2656  -13.5925   13.8260 H   0  0  0  0  0  0  0  0  0  0  0  0
   16.8454  -10.9859   14.1261 H   0  0  0  0  0  0  0  0  0  0  0  0
   15.4748  -11.3241   13.0150 H   0  0  0  0  0  0  0  0  0  0  0  0
   14.1564  -10.4246   14.6421 H   0  0  0  0  0  0  0  0  0  0  0  0
   14.4189  -11.9693   15.5209 H   0  0  0  0  0  0  0  0  0  0  0  0
   16.5316  -11.0786   11.0983 H   0  0  0  0  0  0  0  0  0  0  0  0
   15.7833  -13.0205    9.7509 H   0  0  0  0  0  0  0  0  0  0  0  0
  1  2  1  0
  2  3  2  0
  3  4  1  0
  3  5  1  0
  5  6  2  0
  6  7  1  0
  7  8  2  0
  8  9  1  0
  9 10  1  0
 10 11  1  0
 11 12  2  0
 11 13  1  0
 13 14  1  0
 14 15  1  0
 15 16  1  0
 16 17  1  0
 17 18  1  0
 18 19  2  0
 18 20  1  0
 20 21  1  0
 21 22  1  0
 22 23  1  0
 23 24  1  0
 24 25  1  0
 25 26  1  0
 26 27  1  0
 27 28  1  0
 28 29  1  0
  8 30  1  0
 30 31  2  0
 31  5  1  0
 17 13  1  0
 29 22  1  0
  4 32  1  0
  4 33  1  0
  6 34  1  0
  7 35  1  0
  9 36  1  0
  9 37  1  0
 10 38  1  0
 13 39  1  6
 14 40  1  0
 14 41  1  0
 15 42  1  0
 15 43  1  0
 16 44  1  0
 16 45  1  0
 20 46  1  0
 20 47  1  0
 21 48  1  0
 22 49  1  0
 23 50  1  0
 23 51  1  0
 24 52  1  0
 24 53  1  0
 25 54  1  0
 25 55  1  0
 26 56  1  0
 26 57  1  0
 27 58  1  0
 27 59  1  0
 28 60  1  0
 28 61  1  0
 29 62  1  0
 29 63  1  0
 30 64  1  0
 31 65  1  0
M  END
>  <meeko>  (3) 
{"is_sidechain": [false], "free_energy": -4.869, "intermolecular_energy": -8.68, "internal_energy": -0.76}

$$$$
13U
     RDKit          3D

 65 67  0  0  0  0  0  0  0  0999 V2000
   17.0450   -3.9610   10.8480 H   0  0  0  0  0  0  0  0  0  0  0  0
   16.9350   -4.9170   10.9710 N   0  0  0  0  0  0  0  0  0  0  0  0
   16.7650   -5.4040   12.1670 C   0  0  0  0  0  0  0  0  0  0  0  0
   16.4530   -4.5660   13.2140 N   0  0  0  0  0  0  0  0  0  0  0  0
   16.9070   -6.8600   12.4000 C   0  0  0  0  0  0  0  0  0  0  0  0
   16.0270   -7.5200   13.2560 C   0  0  0  0  0  0  0  0  0  0  0  0
   16.1600   -8.8780   13.4650 C   0  0  0  0  0  0  0  0  0  0  0  0
   17.1720   -9.5810   12.8360 C   0  0  0  0  0  0  0  0  0  0  0  0
   17.3160  -11.0620   13.0730 C   0  0  0  0  0  0  0  0  0  0  0  0
   17.6550  -11.7280   11.8130 N   0  0  0  0  0  0  0  0  0  0  0  0
   16.9710  -12.8220   11.4250 C   0  0  0  0  0  0  0  0  0  0  0  0
   16.0740  -13.2550   12.1180 O   0  0  0  0  0  0  0  0  0  0  0  0
   17.3220  -13.5110   10.1320 C   0  0  2  0  0  0  0  0  0  0  0  0
   16.0420  -13.7970    9.3080 C   0  0  0  0  0  0  0  0  0  0  0  0
   16.4990  -14.9880    8.4250 C   0  0  0  0  0  0  0  0  0  0  0  0
   17.4380  -15.7750    9.3650 C   0  0  0  0  0  0  0  0  0  0  0  0
   17.9030  -14.8400   10.3990 N   0  0  0  0  0  0  0  0  0  0  0  0
   18.7260  -15.1460   11.4220 C   0  0  0  0  0  0  0  0  0  0  0  0
   18.2940  -15.7270   12.3940 O   0  0  0  0  0  0  0  0  0  0  0  0
   20.1830  -14.7670   11.3560 C   0  0  0  0  0  0  0  0  0  0  0  0
   20.3920  -13.4980   12.0650 N   0  0  0  0  0  0  0  0  0  0  0  0
   21.5820  -12.8020   11.5600 C   0  0  0  0  0  0  0  0  0  0  0  0
   21.1520  -11.5590   10.7780 C   0  0  0  0  0  0  0  0  0  0  0  0
   20.4780  -11.9860    9.4720 C   0  0  0  0  0  0  0  0  0  0  0  0
   21.4740  -11.8170    8.2980 C   0  0  0  0  0  0  0  0  0  0  0  0
   22.2720  -13.1120    8.1360 C   0  0  0  0  0  0  0  0  0  0  0  0
   23.6860  -12.9130    8.6840 C   0  0  0  0  0  0  0  0  0  0  0  0
   23.6670  -13.0540   10.2070 C   0  0  0  0  0  0  0  0  0  0  0  0
   22.3690  -13.7370   10.6400 C   0  0  0  0  0  0  0  0  0  0  0  0
   18.0470   -8.9310   11.9850 C   0  0  0  0  0  0  0  0  0  0  0  0
   17.9210   -7.5750   11.7640 C   0  0  0  0  0  0  0  0  0  0  0  0
   16.3270   -4.9290   14.1050 H   0  0  0  0  0  0  0  0  0  0  0  0
   16.3600   -3.6120   13.0610 H   0  0  0  0  0  0  0  0  0  0  0  0
   15.2281   -6.9599   13.7640 H   0  0  0  0  0  0  0  0  0  0  0  0
   15.4603   -9.4020   14.1327 H   0  0  0  0  0  0  0  0  0  0  0  0
   18.1149  -11.2396   13.8080 H   0  0  0  0  0  0  0  0  0  0  0  0
   16.3675  -11.4656   13.4572 H   0  0  0  0  0  0  0  0  0  0  0  0
   18.3720  -11.3820   11.2590 H   0  0  0  0  0  0  0  0  0  0  0  0
   18.0215  -12.8504    9.5987 H   0  0  0  0  0  0  0  0  0  0  0  0
   15.2007  -14.0790    9.9582 H   0  0  0  0  0  0  0  0  0  0  0  0
   15.6748  -12.9316    8.7369 H   0  0  0  0  0  0  0  0  0  0  0  0
   15.6413  -15.6037    8.1164 H   0  0  0  0  0  0  0  0  0  0  0  0
   16.9850  -14.6735    7.4896 H   0  0  0  0  0  0  0  0  0  0  0  0
   16.8927  -16.6097    9.8297 H   0  0  0  0  0  0  0  0  0  0  0  0
   18.2884  -16.1930    8.8063 H   0  0  0  0  0  0  0  0  0  0  0  0
   20.7884  -15.5547   11.8282 H   0  0  0  0  0  0  0  0  0  0  0  0
   20.4847  -14.6531   10.3043 H   0  0  0  0  0  0  0  0  0  0  0  0
   19.5740  -12.9100   12.0020 H   0  0  0  0  0  0  0  0  0  0  0  0
   22.2174  -12.5015   12.4062 H   0  0  0  0  0  0  0  0  0  0  0  0
   20.4435  -10.9729   11.3817 H   0  0  0  0  0  0  0  0  0  0  0  0
   22.0358  -10.9447   10.5508 H   0  0  0  0  0  0  0  0  0  0  0  0
   20.1723  -13.0402    9.5447 H   0  0  0  0  0  0  0  0  0  0  0  0
   19.5919  -11.3588    9.2944 H   0  0  0  0  0  0  0  0  0  0  0  0
   20.9203  -11.6059    7.3713 H   0  0  0  0  0  0  0  0  0  0  0  0
   22.1579  -10.9810    8.5064 H   0  0  0  0  0  0  0  0  0  0  0  0
   21.7744  -13.9209    8.6910 H   0  0  0  0  0  0  0  0  0  0  0  0
   22.3265  -13.3775    7.0699 H   0  0  0  0  0  0  0  0  0  0  0  0
   24.3561  -13.6718    8.2538 H   0  0  0  0  0  0  0  0  0  0  0  0
   24.0465  -11.9097    8.4131 H   0  0  0  0  0  0  0  0  0  0  0  0
   24.5259  -13.6608   10.5297 H   0  0  0  0  0  0  0  0  0  0  0  0
   23.7281  -12.0572   10.6681 H   0  0  0  0  0  0  0  0  0  0  0  0
   21.7642  -13.9715    9.7516 H   0  0  0  0  0  0  0  0  0  0  0  0
   22.6062  -14.6664   11.1785 H   0  0  0  0  0  0  0  0  0  0  0  0
   18.8457   -9.4967   11.4829 H   0  0  0  0  0  0  0  0  0  0  0  0
   18.6187   -7.0593   11.0878 H   0  0  0  0  0  0  0  0  0  0  0  0
  1  2  1  0
  2  3  2  0
  3  4  1  0
  3  5  1  0
  5  6  2  0
  6  7  1  0
  7  8  2  0
  8  9  1  0
  9 10  1  0
 10 11  1  0
 11 12  2  0
 11 13  1  0
 13 14  1  0
 14 15  1  0
 15 16  1  0
 16 17  1  0
 17 18  1  0
 18 19  2  0
 18 20  1  0
 20 21  1  0
 21 22  1  0
 22 23  1  0
 23 24  1  0
 24 25  1  0
 25 26  1  0
 26 27  1  0
 27 28  1  0
 28 29  1  0
  8 30  1  0
 30 31  2  0
 31  5  1  0
 17 13  1  0
 29 22  1  0
  4 32  1  0
  4 33  1  0
  6 34  1  0
  7 35  1  0
  9 36  1  0
  9 37  1  0
 10 38  1  0
 13 39  1  6
 14 40  1  0
 14 41  1  0
 15 42  1  0
 15 43  1  0
 16 44  1  0
 16 45  1  0
 20 46  1  0
 20 47  1  0
 21 48  1  0
 22 49  1  0
 23 50  1  0
 23 51  1  0
 24 52  1  0
 24 53  1  0
 25 54  1  0
 25 55  1  0
 26 56  1  0
 26 57  1  0
 27 58  1  0
 27 59  1  0
 28 60  1  0
 28 61  1  0
 29 62  1  0
 29 63  1  0
 30 64  1  0
 31 65  1  0
M  END
>  <meeko>  (4) 
{"is_sidechain": [false], "free_energy": -4.857, "intermolecular_energy": -8.707, "internal_energy": -0.712}

$$$$
13U
     RDKit          3D

 65 67  0  0  0  0  0  0  0  0999 V2000
   18.7640  -16.1870    8.0910 H   0  0  0  0  0  0  0  0  0  0  0  0
   18.1880  -15.9540    8.8360 N   0  0  0  0  0  0  0  0  0  0  0  0
   17.4380  -14.8920    8.7720 C   0  0  0  0  0  0  0  0  0  0  0  0
   16.2940  -14.9010    8.0060 N   0  0  0  0  0  0  0  0  0  0  0  0
   17.8160  -13.6730    9.5240 C   0  0  0  0  0  0  0  0  0  0  0  0
   16.8400  -12.9250   10.1810 C   0  0  0  0  0  0  0  0  0  0  0  0
   17.1980  -11.7940   10.8850 C   0  0  0  0  0  0  0  0  0  0  0  0
   18.5220  -11.3940   10.9300 C   0  0  0  0  0  0  0  0  0  0  0  0
   18.9060  -10.1530   11.6940 C   0  0  0  0  0  0  0  0  0  0  0  0
   18.0230   -9.0500   11.3100 N   0  0  0  0  0  0  0  0  0  0  0  0
   18.2600   -7.8050   11.7700 C   0  0  0  0  0  0  0  0  0  0  0  0
   19.2060   -7.5990   12.5020 O   0  0  0  0  0  0  0  0  0  0  0  0
   17.3480   -6.6710   11.3800 C   0  0  2  0  0  0  0  0  0  0  0  0
   18.1570   -5.5380   10.7010 C   0  0  0  0  0  0  0  0  0  0  0  0
   17.2480   -4.3070   10.9610 C   0  0  0  0  0  0  0  0  0  0  0  0
   16.6660   -4.5980   12.3610 C   0  0  0  0  0  0  0  0  0  0  0  0
   16.7610   -6.0480   12.5810 N   0  0  0  0  0  0  0  0  0  0  0  0
   16.3750   -6.7000   13.6960 C   0  0  0  0  0  0  0  0  0  0  0  0
   16.9180   -6.4660   14.7540 O   0  0  0  0  0  0  0  0  0  0  0  0
   15.2680   -7.7210   13.6260 C   0  0  0  0  0  0  0  0  0  0  0  0
   15.1590   -8.4140   14.9170 N   0  0  0  0  0  0  0  0  0  0  0  0
   14.6340   -9.7740   14.7410 C   0  0  0  0  0  0  0  0  0  0  0  0
   14.1240  -10.3000   16.0840 C   0  0  0  0  0  0  0  0  0  0  0  0
   14.8590   -9.5910   17.2230 C   0  0  0  0  0  0  0  0  0  0  0  0
   15.9780  -10.5160   17.7630 C   0  0  0  0  0  0  0  0  0  0  0  0
   16.3260  -11.5560   16.6960 C   0  0  0  0  0  0  0  0  0  0  0  0
   17.5490  -11.0870   15.9050 C   0  0  0  0  0  0  0  0  0  0  0  0
   17.0960  -10.1960   14.7470 C   0  0  0  0  0  0  0  0  0  0  0  0
   15.7460  -10.6880   14.2230 C   0  0  0  0  0  0  0  0  0  0  0  0
   19.4950  -12.1320   10.2790 C   0  0  0  0  0  0  0  0  0  0  0  0
   19.1490  -13.2680    9.5770 C   0  0  0  0  0  0  0  0  0  0  0  0
   15.7350  -14.1090    7.9580 H   0  0  0  0  0  0  0  0  0  0  0  0
   16.0460  -15.7000    7.5140 H   0  0  0  0  0  0  0  0  0  0  0  0
   15.7858  -13.2363   10.1381 H   0  0  0  0  0  0  0  0  0  0  0  0
   16.4296  -11.2090   11.4116 H   0  0  0  0  0  0  0  0  0  0  0  0
   18.8083  -10.3420   12.7732 H   0  0  0  0  0  0  0  0  0  0  0  0
   19.9475   -9.8868   11.4609 H   0  0  0  0  0  0  0  0  0  0  0  0
   17.2660   -9.2150   10.7250 H   0  0  0  0  0  0  0  0  0  0  0  0
   16.5815   -7.0925   10.7131 H   0  0  0  0  0  0  0  0  0  0  0  0
   19.1446   -5.4138   11.1692 H   0  0  0  0  0  0  0  0  0  0  0  0
   18.3736   -5.7179    9.6376 H   0  0  0  0  0  0  0  0  0  0  0  0
   17.8334   -3.3757   10.9615 H   0  0  0  0  0  0  0  0  0  0  0  0
   16.4760   -4.1664   10.1901 H   0  0  0  0  0  0  0  0  0  0  0  0
   17.2445   -4.0622   13.1280 H   0  0  0  0  0  0  0  0  0  0  0  0
   15.6206   -4.2619   12.4257 H   0  0  0  0  0  0  0  0  0  0  0  0
   14.3173   -7.2162   13.3993 H   0  0  0  0  0  0  0  0  0  0  0  0
   15.4925   -8.4519   12.8352 H   0  0  0  0  0  0  0  0  0  0  0  0
   16.0480   -8.4280   15.3950 H   0  0  0  0  0  0  0  0  0  0  0  0
   13.8073   -9.7574   14.0155 H   0  0  0  0  0  0  0  0  0  0  0  0
   13.0445  -10.1058   16.1676 H   0  0  0  0  0  0  0  0  0  0  0  0
   14.3084  -11.3826   16.1471 H   0  0  0  0  0  0  0  0  0  0  0  0
   15.3030   -8.6568   16.8487 H   0  0  0  0  0  0  0  0  0  0  0  0
   14.1501   -9.3589   18.0314 H   0  0  0  0  0  0  0  0  0  0  0  0
   16.8700   -9.9167   17.9980 H   0  0  0  0  0  0  0  0  0  0  0  0
   15.6316  -11.0230   18.6757 H   0  0  0  0  0  0  0  0  0  0  0  0
   16.5498  -12.5177   17.1808 H   0  0  0  0  0  0  0  0  0  0  0  0
   15.4729  -11.6791   16.0126 H   0  0  0  0  0  0  0  0  0  0  0  0
   18.2172  -10.5166   16.5669 H   0  0  0  0  0  0  0  0  0  0  0  0
   18.0857  -11.9609   15.5072 H   0  0  0  0  0  0  0  0  0  0  0  0
   16.9965   -9.1588   15.0996 H   0  0  0  0  0  0  0  0  0  0  0  0
   17.8407  -10.2386   13.9385 H   0  0  0  0  0  0  0  0  0  0  0  0
   15.7515  -10.6716   13.1231 H   0  0  0  0  0  0  0  0  0  0  0  0
   15.5691  -11.7155   14.5735 H   0  0  0  0  0  0  0  0  0  0  0  0
   20.5466  -11.8121   10.3214 H   0  0  0  0  0  0  0  0  0  0  0  0
   19.9236  -13.8533    9.0599 H   0  0  0  0  0  0  0  0  0  0  0  0
  1  2  1  0
  2  3  2  0
  3  4  1  0
  3  5  1  0
  5  6  2  0
  6  7  1  0
  7  8  2  0
  8  9  1  0
  9 10  1  0
 10 11  1  0
 11 12  2  0
 11 13  1  0
 13 14  1  0
 14 15  1  0
 15 16  1  0
 16 17  1  0
 17 18  1  0
 18 19  2  0
 18 20  1  0
 20 21  1  0
 21 22  1  0
 22 23  1  0
 23 24  1  0
 24 25  1  0
 25 26  1  0
 26 27  1  0
 27 28  1  0
 28 29  1  0
  8 30  1  0
 30 31  2  0
 31  5  1  0
 17 13  1  0
 29 22  1  0
  4 32  1  0
  4 33  1  0
  6 34  1  0
  7 35  1  0
  9 36  1  0
  9 37  1  0
 10 38  1  0
 13 39  1  6
 14 40  1  0
 14 41  1  0
 15 42  1  0
 15 43  1  0
 16 44  1  0
 16 45  1  0
 20 46  1  0
 20 47  1  0
 21 48  1  0
 22 49  1  0
 23 50  1  0
 23 51  1  0
 24 52  1  0
 24 53  1  0
 25 54  1  0
 25 55  1  0
 26 56  1  0
 26 57  1  0
 27 58  1  0
 27 59  1  0
 28 60  1  0
 28 61  1  0
 29 62  1  0
 29 63  1  0
 30 64  1  0
 31 65  1  0
M  END
>  <meeko>  (5) 
{"is_sidechain": [false], "free_energy": -4.789, "intermolecular_energy": -8.863, "internal_energy": -0.426}

$$$$
