13U_modified_N
     RDKit          3D

 64 66  0  0  0  0  0  0  0  0999 V2000
   20.1650   -4.5390    7.2780 H   0  0  0  0  0  0  0  0  0  0  0  0
   19.8160   -3.6080    7.5270 N   0  0  0  0  0  0  0  0  0  0  0  0
   18.5270   -3.6770    7.6380 C   0  0  0  0  0  0  0  0  0  0  0  0
   17.7310   -3.4850    6.5400 N   0  0  0  0  0  0  0  0  0  0  0  0
   17.8750   -3.9900    8.9540 C   0  0  0  0  0  0  0  0  0  0  0  0
   16.7620   -3.2850    9.3850 C   0  0  0  0  0  0  0  0  0  0  0  0
   16.2160   -3.6200   10.6210 C   0  0  0  0  0  0  0  0  0  0  0  0
   16.8050   -4.6320   11.3880 C   0  0  0  0  0  0  0  0  0  0  0  0
   16.2300   -5.0300   12.7160 C   0  0  0  0  0  0  0  0  0  0  0  0
   16.9450   -6.1560   13.2710 N   0  0  0  0  0  0  0  0  0  0  0  0
   16.2980   -7.3710   13.4090 C   0  0  0  0  0  0  0  0  0  0  0  0
   15.1950   -7.5940   12.9160 O   0  0  0  0  0  0  0  0  0  0  0  0
   17.1370   -8.4420   14.1400 C   0  0  2  0  0  0  0  0  0  0  0  0
   17.7250   -7.8340   15.4200 C   0  0  0  0  0  0  0  0  0  0  0  0
   19.1680   -8.3270   15.4470 C   0  0  0  0  0  0  0  0  0  0  0  0
   19.5350   -8.4160   13.9750 C   0  0  0  0  0  0  0  0  0  0  0  0
   18.2980   -8.8440   13.3520 N   0  0  0  0  0  0  0  0  0  0  0  0
   18.1410   -9.5580   12.1840 C   0  0  0  0  0  0  0  0  0  0  0  0
   18.5900   -9.1370   11.1130 O   0  0  0  0  0  0  0  0  0  0  0  0
   17.4050  -10.9050   12.2990 C   0  0  0  0  0  0  0  0  0  0  0  0
   18.3470  -12.0400   12.3970 N   0  0  0  0  0  0  0  0  0  0  0  0
   18.4120  -12.8580   11.1680 C   0  0  0  0  0  0  0  0  0  0  0  0
   18.4410  -14.3540   11.5560 C   0  0  0  0  0  0  0  0  0  0  0  0
   19.2340  -15.2890   10.6400 C   0  0  0  0  0  0  0  0  0  0  0  0
   18.4090  -15.8960    9.4890 C   0  0  0  0  0  0  0  0  0  0  0  0
   17.7840  -14.8660    8.5510 C   0  0  0  0  0  0  0  0  0  0  0  0
   16.3550  -14.4400    8.8850 C   0  0  0  0  0  0  0  0  0  0  0  0
   16.1600  -13.4960   10.0710 C   0  0  0  0  0  0  0  0  0  0  0  0
   17.2650  -12.4510   10.2220 C   0  0  0  0  0  0  0  0  0  0  0  0
   17.9190   -5.2800   10.8610 C   0  0  0  0  0  0  0  0  0  0  0  0
   18.4720   -4.9890    9.6620 N   0  0  0  0  0  0  0  0  0  0  0  0
   16.7630   -3.7540    6.7330 H   0  0  0  0  0  0  0  0  0  0  0  0
   18.0700   -3.9380    5.7010 H   0  0  0  0  0  0  0  0  0  0  0  0
   16.3238   -2.4856    8.7694 H   0  0  0  0  0  0  0  0  0  0  0  0
   15.3258   -3.0918   10.9932 H   0  0  0  0  0  0  0  0  0  0  0  0
   16.3034   -4.1795   13.4097 H   0  0  0  0  0  0  0  0  0  0  0  0
   15.1784   -5.3183   12.5713 H   0  0  0  0  0  0  0  0  0  0  0  0
   17.7010   -5.9570   13.9130 H   0  0  0  0  0  0  0  0  0  0  0  0
   16.4702   -9.2965   14.3277 H   0  0  0  0  0  0  0  0  0  0  0  0
   17.6899   -6.7353   15.3806 H   0  0  0  0  0  0  0  0  0  0  0  0
   17.1647   -8.1287   16.3195 H   0  0  0  0  0  0  0  0  0  0  0  0
   19.8186   -7.6127   15.9728 H   0  0  0  0  0  0  0  0  0  0  0  0
   19.2863   -9.2828   15.9785 H   0  0  0  0  0  0  0  0  0  0  0  0
   19.8538   -7.4370   13.5878 H   0  0  0  0  0  0  0  0  0  0  0  0
   20.3756   -9.0982   13.7799 H   0  0  0  0  0  0  0  0  0  0  0  0
   16.7722  -10.8891   13.1986 H   0  0  0  0  0  0  0  0  0  0  0  0
   16.7991  -11.0416   11.3911 H   0  0  0  0  0  0  0  0  0  0  0  0
   19.2710  -11.6280   12.5650 H   0  0  0  0  0  0  0  0  0  0  0  0
   19.3385  -12.6771   10.6032 H   0  0  0  0  0  0  0  0  0  0  0  0
   18.8755  -14.4281   12.5638 H   0  0  0  0  0  0  0  0  0  0  0  0
   17.3971  -14.6919   11.4782 H   0  0  0  0  0  0  0  0  0  0  0  0
   20.0675  -14.7190   10.2036 H   0  0  0  0  0  0  0  0  0  0  0  0
   19.5724  -16.1297   11.2635 H   0  0  0  0  0  0  0  0  0  0  0  0
   19.0705  -16.5448    8.8962 H   0  0  0  0  0  0  0  0  0  0  0  0
   17.5762  -16.4440    9.9540 H   0  0  0  0  0  0  0  0  0  0  0  0
   18.4167  -13.9664    8.5685 H   0  0  0  0  0  0  0  0  0  0  0  0
   17.7268  -15.3551    7.5674 H   0  0  0  0  0  0  0  0  0  0  0  0
   15.9433  -13.9410    7.9953 H   0  0  0  0  0  0  0  0  0  0  0  0
   15.8466  -15.3698    9.1799 H   0  0  0  0  0  0  0  0  0  0  0  0
   15.2024  -12.9705    9.9410 H   0  0  0  0  0  0  0  0  0  0  0  0
   16.1828  -14.1167   10.9789 H   0  0  0  0  0  0  0  0  0  0  0  0
   17.6932  -12.2591    9.2271 H   0  0  0  0  0  0  0  0  0  0  0  0
   16.7939  -11.5633   10.6692 H   0  0  0  0  0  0  0  0  0  0  0  0
   18.3790   -6.0806   11.4589 H   0  0  0  0  0  0  0  0  0  0  0  0
  1  2  1  0
  2  3  2  0
  3  4  1  0
  3  5  1  0
  5  6  2  0
  6  7  1  0
  7  8  2  0
  8  9  1  0
  9 10  1  0
 10 11  1  0
 11 12  2  0
 11 13  1  0
 13 14  1  0
 14 15  1  0
 15 16  1  0
 16 17  1  0
 17 18  1  0
 18 19  2  0
 18 20  1  0
 20 21  1  0
 21 22  1  0
 22 23  1  0
 23 24  1  0
 24 25  1  0
 25 26  1  0
 26 27  1  0
 27 28  1  0
 28 29  1  0
  8 30  1  0
 30 31  2  0
 31  5  1  0
 17 13  1  0
 29 22  1  0
  4 32  1  0
  4 33  1  0
  6 34  1  0
  7 35  1  0
  9 36  1  0
  9 37  1  0
 10 38  1  0
 13 39  1  1
 14 40  1  0
 14 41  1  0
 15 42  1  0
 15 43  1  0
 16 44  1  0
 16 45  1  0
 20 46  1  0
 20 47  1  0
 21 48  1  0
 22 49  1  0
 23 50  1  0
 23 51  1  0
 24 52  1  0
 24 53  1  0
 25 54  1  0
 25 55  1  0
 26 56  1  0
 26 57  1  0
 27 58  1  0
 27 59  1  0
 28 60  1  0
 28 61  1  0
 29 62  1  0
 29 63  1  0
 30 64  1  0
M  END
>  <meeko>  (1) 
{"is_sidechain": [false], "free_energy": -5.295, "intermolecular_energy": -10.093, "internal_energy": -0.743}

$$$$
13U_modified_N
     RDKit          3D

 64 66  0  0  0  0  0  0  0  0999 V2000
   16.8090   -4.1640    7.2080 H   0  0  0  0  0  0  0  0  0  0  0  0
   17.2640   -3.3440    7.6200 N   0  0  0  0  0  0  0  0  0  0  0  0
   18.0800   -3.7530    8.5390 C   0  0  0  0  0  0  0  0  0  0  0  0
   19.4310   -3.7490    8.3130 N   0  0  0  0  0  0  0  0  0  0  0  0
   17.5750   -4.2160    9.8760 C   0  0  0  0  0  0  0  0  0  0  0  0
   16.7260   -3.4230   10.6330 C   0  0  0  0  0  0  0  0  0  0  0  0
   16.3080   -3.9100   11.8680 C   0  0  0  0  0  0  0  0  0  0  0  0
   16.7590   -5.1590   12.3110 C   0  0  0  0  0  0  0  0  0  0  0  0
   16.3110   -5.7210   13.6270 C   0  0  0  0  0  0  0  0  0  0  0  0
   15.6990   -7.0190   13.4550 N   0  0  0  0  0  0  0  0  0  0  0  0
   15.7160   -7.9230   14.5010 C   0  0  0  0  0  0  0  0  0  0  0  0
   16.0690   -7.6160   15.6370 O   0  0  0  0  0  0  0  0  0  0  0  0
   15.1500   -9.3110   14.1310 C   0  0  2  0  0  0  0  0  0  0  0  0
   14.1540   -9.7540   15.2110 C   0  0  0  0  0  0  0  0  0  0  0  0
   14.4880  -11.2210   15.4570 C   0  0  0  0  0  0  0  0  0  0  0  0
   15.9880  -11.2840   15.2190 C   0  0  0  0  0  0  0  0  0  0  0  0
   16.1910  -10.3350   14.1430 N   0  0  0  0  0  0  0  0  0  0  0  0
   17.1910  -10.3310   13.1950 C   0  0  0  0  0  0  0  0  0  0  0  0
   17.4200   -9.3280   12.5120 O   0  0  0  0  0  0  0  0  0  0  0  0
   18.0110  -11.6270   13.0600 C   0  0  0  0  0  0  0  0  0  0  0  0
   17.2670  -12.6760   12.3320 N   0  0  0  0  0  0  0  0  0  0  0  0
   18.0410  -13.2880   11.2310 C   0  0  0  0  0  0  0  0  0  0  0  0
   18.1380  -14.8120   11.4660 C   0  0  0  0  0  0  0  0  0  0  0  0
   19.1310  -15.5830   10.5930 C   0  0  0  0  0  0  0  0  0  0  0  0
   18.5360  -16.1510    9.2850 C   0  0  0  0  0  0  0  0  0  0  0  0
   17.0130  -16.0990    9.1870 C   0  0  0  0  0  0  0  0  0  0  0  0
   16.4270  -14.8340    8.5620 C   0  0  0  0  0  0  0  0  0  0  0  0
   16.1640  -13.6470    9.4890 C   0  0  0  0  0  0  0  0  0  0  0  0
   17.4230  -12.8730    9.8810 C   0  0  0  0  0  0  0  0  0  0  0  0
   17.6070   -5.8770   11.4710 C   0  0  0  0  0  0  0  0  0  0  0  0
   18.0280   -5.4420   10.2620 N   0  0  0  0  0  0  0  0  0  0  0  0
   19.9510   -3.9130    9.1780 H   0  0  0  0  0  0  0  0  0  0  0  0
   19.7660   -2.9190    7.8420 H   0  0  0  0  0  0  0  0  0  0  0  0
   16.3933   -2.4398   10.2689 H   0  0  0  0  0  0  0  0  0  0  0  0
   15.6258   -3.3157   12.4936 H   0  0  0  0  0  0  0  0  0  0  0  0
   17.1822   -5.8193   14.2913 H   0  0  0  0  0  0  0  0  0  0  0  0
   15.5676   -5.0384   14.0645 H   0  0  0  0  0  0  0  0  0  0  0  0
   15.6610   -7.3940   12.5160 H   0  0  0  0  0  0  0  0  0  0  0  0
   14.6984   -9.2156   13.1325 H   0  0  0  0  0  0  0  0  0  0  0  0
   14.2890   -9.1648   16.1300 H   0  0  0  0  0  0  0  0  0  0  0  0
   13.1084   -9.6085   14.9018 H   0  0  0  0  0  0  0  0  0  0  0  0
   14.2401  -11.5139   16.4879 H   0  0  0  0  0  0  0  0  0  0  0  0
   13.9207  -11.9056   14.8093 H   0  0  0  0  0  0  0  0  0  0  0  0
   16.5435  -10.9842   16.1198 H   0  0  0  0  0  0  0  0  0  0  0  0
   16.3447  -12.2957   14.9758 H   0  0  0  0  0  0  0  0  0  0  0  0
   18.9395  -11.4052   12.5135 H   0  0  0  0  0  0  0  0  0  0  0  0
   18.2264  -12.0013   14.0717 H   0  0  0  0  0  0  0  0  0  0  0  0
   17.0510  -13.4020   13.0220 H   0  0  0  0  0  0  0  0  0  0  0  0
   19.0783  -12.9229   11.2056 H   0  0  0  0  0  0  0  0  0  0  0  0
   18.4261  -14.9692   12.5159 H   0  0  0  0  0  0  0  0  0  0  0  0
   17.1483  -15.2086   11.1952 H   0  0  0  0  0  0  0  0  0  0  0  0
   19.9540  -14.9030   10.3280 H   0  0  0  0  0  0  0  0  0  0  0  0
   19.4590  -16.4490   11.1866 H   0  0  0  0  0  0  0  0  0  0  0  0
   18.9509  -15.5755    8.4444 H   0  0  0  0  0  0  0  0  0  0  0  0
   18.8069  -17.2169    9.2641 H   0  0  0  0  0  0  0  0  0  0  0  0
   16.6848  -16.9570    8.5819 H   0  0  0  0  0  0  0  0  0  0  0  0
   16.6474  -16.1152   10.2243 H   0  0  0  0  0  0  0  0  0  0  0  0
   17.1271  -14.4959    7.7838 H   0  0  0  0  0  0  0  0  0  0  0  0
   15.4323  -15.1340    8.2007 H   0  0  0  0  0  0  0  0  0  0  0  0
   15.4775  -12.9552    8.9789 H   0  0  0  0  0  0  0  0  0  0  0  0
   15.7401  -14.0564   10.4178 H   0  0  0  0  0  0  0  0  0  0  0  0
   18.1784  -13.0278    9.0965 H   0  0  0  0  0  0  0  0  0  0  0  0
   17.1197  -11.8211    9.9888 H   0  0  0  0  0  0  0  0  0  0  0  0
   17.9569   -6.8620   11.8135 H   0  0  0  0  0  0  0  0  0  0  0  0
  1  2  1  0
  2  3  2  0
  3  4  1  0
  3  5  1  0
  5  6  2  0
  6  7  1  0
  7  8  2  0
  8  9  1  0
  9 10  1  0
 10 11  1  0
 11 12  2  0
 11 13  1  0
 13 14  1  0
 14 15  1  0
 15 16  1  0
 16 17  1  0
 17 18  1  0
 18 19  2  0
 18 20  1  0
 20 21  1  0
 21 22  1  0
 22 23  1  0
 23 24  1  0
 24 25  1  0
 25 26  1  0
 26 27  1  0
 27 28  1  0
 28 29  1  0
  8 30  1  0
 30 31  2  0
 31  5  1  0
 17 13  1  0
 29 22  1  0
  4 32  1  0
  4 33  1  0
  6 34  1  0
  7 35  1  0
  9 36  1  0
  9 37  1  0
 10 38  1  0
 13 39  1  6
 14 40  1  0
 14 41  1  0
 15 42  1  0
 15 43  1  0
 16 44  1  0
 16 45  1  0
 20 46  1  0
 20 47  1  0
 21 48  1  0
 22 49  1  0
 23 50  1  0
 23 51  1  0
 24 52  1  0
 24 53  1  0
 25 54  1  0
 25 55  1  0
 26 56  1  0
 26 57  1  0
 27 58  1  0
 27 59  1  0
 28 60  1  0
 28 61  1  0
 29 62  1  0
 29 63  1  0
 30 64  1  0
M  END
>  <meeko>  (2) 
{"is_sidechain": [false], "free_energy": -5.205, "intermolecular_energy": -10.137, "internal_energy": -0.527}

$$$$
13U_modified_N
     RDKit          3D

 64 66  0  0  0  0  0  0  0  0999 V2000
   20.3040   -3.0180    6.8370 H   0  0  0  0  0  0  0  0  0  0  0  0
   19.7970   -3.9050    6.7620 N   0  0  0  0  0  0  0  0  0  0  0  0
   18.5570   -3.6880    7.0690 C   0  0  0  0  0  0  0  0  0  0  0  0
   17.6730   -3.2720    6.1090 N   0  0  0  0  0  0  0  0  0  0  0  0
   18.0520   -3.9080    8.4660 C   0  0  0  0  0  0  0  0  0  0  0  0
   18.7520   -4.7020    9.3610 C   0  0  0  0  0  0  0  0  0  0  0  0
   18.2180   -4.8730   10.6360 C   0  0  0  0  0  0  0  0  0  0  0  0
   17.0040   -4.2600   10.9680 C   0  0  0  0  0  0  0  0  0  0  0  0
   16.4120   -4.4080   12.3390 C   0  0  0  0  0  0  0  0  0  0  0  0
   15.9860   -5.7680   12.5740 N   0  0  0  0  0  0  0  0  0  0  0  0
   16.3500   -6.4010   13.7490 C   0  0  0  0  0  0  0  0  0  0  0  0
   16.8710   -5.8050   14.6890 O   0  0  0  0  0  0  0  0  0  0  0  0
   15.9430   -7.8900   13.8040 C   0  0  2  0  0  0  0  0  0  0  0  0
   15.3000   -8.1860   15.1660 C   0  0  0  0  0  0  0  0  0  0  0  0
   15.9110   -9.5170   15.5920 C   0  0  0  0  0  0  0  0  0  0  0  0
   17.3080   -9.4690   14.9970 C   0  0  0  0  0  0  0  0  0  0  0  0
   17.1090   -8.7670   13.7450 N   0  0  0  0  0  0  0  0  0  0  0  0
   17.8560   -8.8650   12.5900 C   0  0  0  0  0  0  0  0  0  0  0  0
   18.7170   -8.0250   12.3140 O   0  0  0  0  0  0  0  0  0  0  0  0
   17.5710  -10.0840   11.6930 C   0  0  0  0  0  0  0  0  0  0  0  0
   17.7070  -11.3550   12.4340 N   0  0  0  0  0  0  0  0  0  0  0  0
   18.2060  -12.4700   11.6010 C   0  0  0  0  0  0  0  0  0  0  0  0
   17.9080  -13.8080   12.3140 C   0  0  0  0  0  0  0  0  0  0  0  0
   18.7180  -15.0260   11.8620 C   0  0  0  0  0  0  0  0  0  0  0  0
   18.0430  -15.9010   10.7880 C   0  0  0  0  0  0  0  0  0  0  0  0
   18.1760  -15.3900    9.3550 C   0  0  0  0  0  0  0  0  0  0  0  0
   17.0560  -14.4720    8.8680 C   0  0  0  0  0  0  0  0  0  0  0  0
   16.5660  -13.3870    9.8260 C   0  0  0  0  0  0  0  0  0  0  0  0
   17.6270  -12.3440   10.1780 C   0  0  0  0  0  0  0  0  0  0  0  0
   16.3840   -3.4800    9.9950 C   0  0  0  0  0  0  0  0  0  0  0  0
   16.8750   -3.2840    8.7500 N   0  0  0  0  0  0  0  0  0  0  0  0
   16.7090   -3.3260    6.4450 H   0  0  0  0  0  0  0  0  0  0  0  0
   17.7730   -3.7500    5.2230 H   0  0  0  0  0  0  0  0  0  0  0  0
   19.6991   -5.1818    9.0734 H   0  0  0  0  0  0  0  0  0  0  0  0
   18.7480   -5.4871   11.3789 H   0  0  0  0  0  0  0  0  0  0  0  0
   17.1682   -4.1330   13.0891 H   0  0  0  0  0  0  0  0  0  0  0  0
   15.5356   -3.7476   12.4158 H   0  0  0  0  0  0  0  0  0  0  0  0
   15.8200   -6.3510   11.7640 H   0  0  0  0  0  0  0  0  0  0  0  0
   15.2688   -8.0688   12.9534 H   0  0  0  0  0  0  0  0  0  0  0  0
   15.5435   -7.3958   15.8915 H   0  0  0  0  0  0  0  0  0  0  0  0
   14.2021   -8.2266   15.1117 H   0  0  0  0  0  0  0  0  0  0  0  0
   15.9525   -9.5982   16.6882 H   0  0  0  0  0  0  0  0  0  0  0  0
   15.3285  -10.3857   15.2514 H   0  0  0  0  0  0  0  0  0  0  0  0
   17.9978   -8.9180   15.6532 H   0  0  0  0  0  0  0  0  0  0  0  0
   17.7568  -10.4649   14.8673 H   0  0  0  0  0  0  0  0  0  0  0  0
   16.5452  -10.0071   11.3034 H   0  0  0  0  0  0  0  0  0  0  0  0
   18.3060  -10.0853   10.8746 H   0  0  0  0  0  0  0  0  0  0  0  0
   18.3840  -11.1770   13.1820 H   0  0  0  0  0  0  0  0  0  0  0  0
   19.2985  -12.4337   11.4784 H   0  0  0  0  0  0  0  0  0  0  0  0
   18.0972  -13.6623   13.3878 H   0  0  0  0  0  0  0  0  0  0  0  0
   16.8648  -14.0447   12.0579 H   0  0  0  0  0  0  0  0  0  0  0  0
   19.6751  -14.6666   11.4560 H   0  0  0  0  0  0  0  0  0  0  0  0
   18.8298  -15.6650   12.7503 H   0  0  0  0  0  0  0  0  0  0  0  0
   18.4921  -16.9040   10.8347 H   0  0  0  0  0  0  0  0  0  0  0  0
   16.9672  -15.8901   11.0173 H   0  0  0  0  0  0  0  0  0  0  0  0
   19.1228  -14.8350    9.2815 H   0  0  0  0  0  0  0  0  0  0  0  0
   18.1289  -16.2831    8.7146 H   0  0  0  0  0  0  0  0  0  0  0  0
   17.4142  -13.9700    7.9571 H   0  0  0  0  0  0  0  0  0  0  0  0
   16.1898  -15.1358    8.7300 H   0  0  0  0  0  0  0  0  0  0  0  0
   15.7150  -12.8706    9.3579 H   0  0  0  0  0  0  0  0  0  0  0  0
   16.2910  -13.8909   10.7643 H   0  0  0  0  0  0  0  0  0  0  0  0
   18.4554  -12.4422    9.4610 H   0  0  0  0  0  0  0  0  0  0  0  0
   17.1281  -11.3648   10.1309 H   0  0  0  0  0  0  0  0  0  0  0  0
   15.4335   -2.9917   10.2559 H   0  0  0  0  0  0  0  0  0  0  0  0
  1  2  1  0
  2  3  2  0
  3  4  1  0
  3  5  1  0
  5  6  2  0
  6  7  1  0
  7  8  2  0
  8  9  1  0
  9 10  1  0
 10 11  1  0
 11 12  2  0
 11 13  1  0
 13 14  1  0
 14 15  1  0
 15 16  1  0
 16 17  1  0
 17 18  1  0
 18 19  2  0
 18 20  1  0
 20 21  1  0
 21 22  1  0
 22 23  1  0
 23 24  1  0
 24 25  1  0
 25 26  1  0
 26 27  1  0
 27 28  1  0
 28 29  1  0
  8 30  1  0
 30 31  2  0
 31  5  1  0
 17 13  1  0
 29 22  1  0
  4 32  1  0
  4 33  1  0
  6 34  1  0
  7 35  1  0
  9 36  1  0
  9 37  1  0
 10 38  1  0
 13 39  1  6
 14 40  1  0
 14 41  1  0
 15 42  1  0
 15 43  1  0
 16 44  1  0
 16 45  1  0
 20 46  1  0
 20 47  1  0
 21 48  1  0
 22 49  1  0
 23 50  1  0
 23 51  1  0
 24 52  1  0
 24 53  1  0
 25 54  1  0
 25 55  1  0
 26 56  1  0
 26 57  1  0
 27 58  1  0
 27 59  1  0
 28 60  1  0
 28 61  1  0
 29 62  1  0
 29 63  1  0
 30 64  1  0
M  END
>  <meeko>  (3) 
{"is_sidechain": [false], "free_energy": -4.989, "intermolecular_energy": -9.726, "internal_energy": -0.527}

$$$$
13U_modified_N
     RDKit          3D

 64 66  0  0  0  0  0  0  0  0999 V2000
   17.7060   -2.8150    7.0780 H   0  0  0  0  0  0  0  0  0  0  0  0
   17.2080   -3.1380    7.9130 N   0  0  0  0  0  0  0  0  0  0  0  0
   18.0670   -3.6980    8.7040 C   0  0  0  0  0  0  0  0  0  0  0  0
   19.4080   -3.6010    8.4430 N   0  0  0  0  0  0  0  0  0  0  0  0
   17.6250   -4.4410    9.9320 C   0  0  0  0  0  0  0  0  0  0  0  0
   16.5060   -4.0390   10.6460 C   0  0  0  0  0  0  0  0  0  0  0  0
   16.1610   -4.7660   11.7810 C   0  0  0  0  0  0  0  0  0  0  0  0
   16.9460   -5.8560   12.1730 C   0  0  0  0  0  0  0  0  0  0  0  0
   16.5910   -6.6730   13.3800 C   0  0  0  0  0  0  0  0  0  0  0  0
   17.4150   -7.8560   13.4650 N   0  0  0  0  0  0  0  0  0  0  0  0
   18.4460   -7.9020   14.3850 C   0  0  0  0  0  0  0  0  0  0  0  0
   18.5890   -7.0540   15.2630 O   0  0  0  0  0  0  0  0  0  0  0  0
   19.3260   -9.1670   14.2700 C   0  0  2  0  0  0  0  0  0  0  0  0
   20.7220   -8.8620   14.8280 C   0  0  0  0  0  0  0  0  0  0  0  0
   21.6790   -9.4950   13.8230 C   0  0  0  0  0  0  0  0  0  0  0  0
   20.9420   -9.3550   12.5010 C   0  0  0  0  0  0  0  0  0  0  0  0
   19.5540   -9.5360   12.8770 N   0  0  0  0  0  0  0  0  0  0  0  0
   18.5200  -10.0090   12.0970 C   0  0  0  0  0  0  0  0  0  0  0  0
   18.2810   -9.5190   10.9890 O   0  0  0  0  0  0  0  0  0  0  0  0
   17.7120  -11.1860   12.6720 C   0  0  0  0  0  0  0  0  0  0  0  0
   18.4470  -12.4640   12.5610 N   0  0  0  0  0  0  0  0  0  0  0  0
   18.2030  -13.1730   11.2880 C   0  0  0  0  0  0  0  0  0  0  0  0
   18.9970  -14.4990   11.2850 C   0  0  0  0  0  0  0  0  0  0  0  0
   19.4180  -15.0480    9.9200 C   0  0  0  0  0  0  0  0  0  0  0  0
   18.3090  -15.8370    9.1490 C   0  0  0  0  0  0  0  0  0  0  0  0
   17.4490  -14.9770    8.2240 C   0  0  0  0  0  0  0  0  0  0  0  0
   16.1500  -14.4440    8.8260 C   0  0  0  0  0  0  0  0  0  0  0  0
   16.2250  -13.1420    9.6230 C   0  0  0  0  0  0  0  0  0  0  0  0
   16.6840  -13.3230   11.0690 C   0  0  0  0  0  0  0  0  0  0  0  0
   18.0470   -6.1780   11.3840 C   0  0  0  0  0  0  0  0  0  0  0  0
   18.4100   -5.5020   10.2700 N   0  0  0  0  0  0  0  0  0  0  0  0
   19.9640   -3.9200    9.2400 H   0  0  0  0  0  0  0  0  0  0  0  0
   19.7030   -2.6810    8.1430 H   0  0  0  0  0  0  0  0  0  0  0  0
   15.9097   -3.1722   10.3249 H   0  0  0  0  0  0  0  0  0  0  0  0
   15.2743   -4.4849   12.3681 H   0  0  0  0  0  0  0  0  0  0  0  0
   16.7417   -6.0640   14.2836 H   0  0  0  0  0  0  0  0  0  0  0  0
   15.5392   -6.9839   13.2957 H   0  0  0  0  0  0  0  0  0  0  0  0
   17.5140   -8.4160   12.6270 H   0  0  0  0  0  0  0  0  0  0  0  0
   18.8045   -9.9695   14.8123 H   0  0  0  0  0  0  0  0  0  0  0  0
   20.8869   -7.7763   14.8920 H   0  0  0  0  0  0  0  0  0  0  0  0
   20.8620   -9.2557   15.8456 H   0  0  0  0  0  0  0  0  0  0  0  0
   22.6376   -8.9561   13.7986 H   0  0  0  0  0  0  0  0  0  0  0  0
   21.9308  -10.5377   14.0667 H   0  0  0  0  0  0  0  0  0  0  0  0
   21.1054   -8.3600   12.0614 H   0  0  0  0  0  0  0  0  0  0  0  0
   21.2805  -10.0729   11.7394 H   0  0  0  0  0  0  0  0  0  0  0  0
   17.5008  -10.9879   13.7332 H   0  0  0  0  0  0  0  0  0  0  0  0
   16.7809  -11.2761   12.0932 H   0  0  0  0  0  0  0  0  0  0  0  0
   19.4420  -12.2250   12.6160 H   0  0  0  0  0  0  0  0  0  0  0  0
   18.5716  -12.6007   10.4239 H   0  0  0  0  0  0  0  0  0  0  0  0
   19.9109  -14.3410   11.8764 H   0  0  0  0  0  0  0  0  0  0  0  0
   18.3058  -15.2493   11.6963 H   0  0  0  0  0  0  0  0  0  0  0  0
   19.7300  -14.1995    9.2934 H   0  0  0  0  0  0  0  0  0  0  0  0
   20.2251  -15.7691   10.1166 H   0  0  0  0  0  0  0  0  0  0  0  0
   18.7981  -16.6125    8.5413 H   0  0  0  0  0  0  0  0  0  0  0  0
   17.6323  -16.2518    9.9106 H   0  0  0  0  0  0  0  0  0  0  0  0
   18.0532  -14.1138    7.9079 H   0  0  0  0  0  0  0  0  0  0  0  0
   17.1457  -15.6383    7.3990 H   0  0  0  0  0  0  0  0  0  0  0  0
   15.4443  -14.2833    7.9977 H   0  0  0  0  0  0  0  0  0  0  0  0
   15.8475  -15.2054    9.5600 H   0  0  0  0  0  0  0  0  0  0  0  0
   16.9320  -12.4676    9.1177 H   0  0  0  0  0  0  0  0  0  0  0  0
   15.2042  -12.7341    9.6623 H   0  0  0  0  0  0  0  0  0  0  0  0
   16.1730  -12.5702   11.6872 H   0  0  0  0  0  0  0  0  0  0  0  0
   16.4312  -14.3567   11.3474 H   0  0  0  0  0  0  0  0  0  0  0  0
   18.6620   -7.0385   11.6863 H   0  0  0  0  0  0  0  0  0  0  0  0
  1  2  1  0
  2  3  2  0
  3  4  1  0
  3  5  1  0
  5  6  2  0
  6  7  1  0
  7  8  2  0
  8  9  1  0
  9 10  1  0
 10 11  1  0
 11 12  2  0
 11 13  1  0
 13 14  1  0
 14 15  1  0
 15 16  1  0
 16 17  1  0
 17 18  1  0
 18 19  2  0
 18 20  1  0
 20 21  1  0
 21 22  1  0
 22 23  1  0
 23 24  1  0
 24 25  1  0
 25 26  1  0
 26 27  1  0
 27 28  1  0
 28 29  1  0
  8 30  1  0
 30 31  2  0
 31  5  1  0
 17 13  1  0
 29 22  1  0
  4 32  1  0
  4 33  1  0
  6 34  1  0
  7 35  1  0
  9 36  1  0
  9 37  1  0
 10 38  1  0
 13 39  1  1
 14 40  1  0
 14 41  1  0
 15 42  1  0
 15 43  1  0
 16 44  1  0
 16 45  1  0
 20 46  1  0
 20 47  1  0
 21 48  1  0
 22 49  1  0
 23 50  1  0
 23 51  1  0
 24 52  1  0
 24 53  1  0
 25 54  1  0
 25 55  1  0
 26 56  1  0
 26 57  1  0
 27 58  1  0
 27 59  1  0
 28 60  1  0
 28 61  1  0
 29 62  1  0
 29 63  1  0
 30 64  1  0
M  END
>  <meeko>  (4) 
{"is_sidechain": [false], "free_energy": -4.611, "intermolecular_energy": -8.982, "internal_energy": -0.55}

$$$$
13U_modified_N
     RDKit          3D

 64 66  0  0  0  0  0  0  0  0999 V2000
   20.2010   -3.6450    5.9260 H   0  0  0  0  0  0  0  0  0  0  0  0
   19.9610   -3.9170    6.8840 N   0  0  0  0  0  0  0  0  0  0  0  0
   18.7000   -3.6860    7.0650 C   0  0  0  0  0  0  0  0  0  0  0  0
   17.9220   -3.2570    6.0230 N   0  0  0  0  0  0  0  0  0  0  0  0
   18.0540   -3.9020    8.4040 C   0  0  0  0  0  0  0  0  0  0  0  0
   16.8190   -3.3460    8.6980 C   0  0  0  0  0  0  0  0  0  0  0  0
   16.2850   -3.5770    9.9630 C   0  0  0  0  0  0  0  0  0  0  0  0
   17.0030   -4.3390   10.8910 C   0  0  0  0  0  0  0  0  0  0  0  0
   16.4470   -4.6230   12.2550 C   0  0  0  0  0  0  0  0  0  0  0  0
   16.1460   -6.0280   12.4090 N   0  0  0  0  0  0  0  0  0  0  0  0
   16.0520   -6.5680   13.6790 C   0  0  0  0  0  0  0  0  0  0  0  0
   16.0340   -5.8760   14.6940 O   0  0  0  0  0  0  0  0  0  0  0  0
   15.8620   -8.1010   13.6890 C   0  0  2  0  0  0  0  0  0  0  0  0
   14.9970   -8.4940   14.8940 C   0  0  0  0  0  0  0  0  0  0  0  0
   15.6910   -9.7220   15.4750 C   0  0  0  0  0  0  0  0  0  0  0  0
   17.1600   -9.4660   15.1830 C   0  0  0  0  0  0  0  0  0  0  0  0
   17.1290   -8.7960   13.8980 N   0  0  0  0  0  0  0  0  0  0  0  0
   18.1080   -8.7790   12.9280 C   0  0  0  0  0  0  0  0  0  0  0  0
   17.8190   -8.6940   11.7310 O   0  0  0  0  0  0  0  0  0  0  0  0
   19.5640   -8.8470   13.4250 C   0  0  0  0  0  0  0  0  0  0  0  0
   20.0710  -10.2340   13.4560 N   0  0  0  0  0  0  0  0  0  0  0  0
   19.3940  -11.1290   12.4930 C   0  0  0  0  0  0  0  0  0  0  0  0
   20.4350  -11.6710   11.4880 C   0  0  0  0  0  0  0  0  0  0  0  0
   19.9660  -11.8620   10.0440 C   0  0  0  0  0  0  0  0  0  0  0  0
   19.1110  -13.1490    9.7810 C   0  0  0  0  0  0  0  0  0  0  0  0
   19.1190  -14.1840   10.9040 C   0  0  0  0  0  0  0  0  0  0  0  0
   17.8890  -14.1940   11.8110 C   0  0  0  0  0  0  0  0  0  0  0  0
   17.4860  -12.8730   12.4660 C   0  0  0  0  0  0  0  0  0  0  0  0
   18.6070  -12.2080   13.2640 C   0  0  0  0  0  0  0  0  0  0  0  0
   18.2340   -4.8560   10.4930 C   0  0  0  0  0  0  0  0  0  0  0  0
   18.7810   -4.6600    9.2710 N   0  0  0  0  0  0  0  0  0  0  0  0
   16.9280   -3.3000    6.2610 H   0  0  0  0  0  0  0  0  0  0  0  0
   18.1050   -3.7340    5.1500 H   0  0  0  0  0  0  0  0  0  0  0  0
   16.2778   -2.7413    7.9554 H   0  0  0  0  0  0  0  0  0  0  0  0
   15.3024   -3.1620   10.2317 H   0  0  0  0  0  0  0  0  0  0  0  0
   17.1870   -4.3283   13.0137 H   0  0  0  0  0  0  0  0  0  0  0  0
   15.5169   -4.0494   12.3809 H   0  0  0  0  0  0  0  0  0  0  0  0
   16.4240   -6.6480   11.6590 H   0  0  0  0  0  0  0  0  0  0  0  0
   15.4141   -8.3740   12.7221 H   0  0  0  0  0  0  0  0  0  0  0  0
   14.9649   -7.6793   15.6324 H   0  0  0  0  0  0  0  0  0  0  0  0
   13.9531   -8.6964   14.6125 H   0  0  0  0  0  0  0  0  0  0  0  0
   15.5124   -9.7999   16.5576 H   0  0  0  0  0  0  0  0  0  0  0  0
   15.3254  -10.6661   15.0449 H   0  0  0  0  0  0  0  0  0  0  0  0
   17.6091   -8.8218   15.9533 H   0  0  0  0  0  0  0  0  0  0  0  0
   17.7656  -10.3843   15.1768 H   0  0  0  0  0  0  0  0  0  0  0  0
   20.1979   -8.2516   12.7515 H   0  0  0  0  0  0  0  0  0  0  0  0
   19.5931   -8.4503   14.4506 H   0  0  0  0  0  0  0  0  0  0  0  0
   21.0640  -10.1800   13.2090 H   0  0  0  0  0  0  0  0  0  0  0  0
   18.6462  -10.5930   11.8901 H   0  0  0  0  0  0  0  0  0  0  0  0
   21.2805  -10.9676   11.4729 H   0  0  0  0  0  0  0  0  0  0  0  0
   20.6819  -12.6813   11.8463 H   0  0  0  0  0  0  0  0  0  0  0  0
   19.3587  -10.9881    9.7657 H   0  0  0  0  0  0  0  0  0  0  0  0
   20.8788  -11.9753    9.4407 H   0  0  0  0  0  0  0  0  0  0  0  0
   18.0695  -12.8361    9.6158 H   0  0  0  0  0  0  0  0  0  0  0  0
   19.5685  -13.6432    8.9113 H   0  0  0  0  0  0  0  0  0  0  0  0
   19.2069  -15.1795   10.4443 H   0  0  0  0  0  0  0  0  0  0  0  0
   19.9651  -13.9131   11.5526 H   0  0  0  0  0  0  0  0  0  0  0  0
   17.0361  -14.5359   11.2062 H   0  0  0  0  0  0  0  0  0  0  0  0
   18.1637  -14.8509   12.6495 H   0  0  0  0  0  0  0  0  0  0  0  0
   17.1651  -12.1786   11.6755 H   0  0  0  0  0  0  0  0  0  0  0  0
   16.6810  -13.1037   13.1792 H   0  0  0  0  0  0  0  0  0  0  0  0
   18.1621  -11.7378   14.1534 H   0  0  0  0  0  0  0  0  0  0  0  0
   19.3273  -13.0023   13.5092 H   0  0  0  0  0  0  0  0  0  0  0  0
   18.7970   -5.4620   11.2182 H   0  0  0  0  0  0  0  0  0  0  0  0
  1  2  1  0
  2  3  2  0
  3  4  1  0
  3  5  1  0
  5  6  2  0
  6  7  1  0
  7  8  2  0
  8  9  1  0
  9 10  1  0
 10 11  1  0
 11 12  2  0
 11 13  1  0
 13 14  1  0
 14 15  1  0
 15 16  1  0
 16 17  1  0
 17 18  1  0
 18 19  2  0
 18 20  1  0
 20 21  1  0
 21 22  1  0
 22 23  1  0
 23 24  1  0
 24 25  1  0
 25 26  1  0
 26 27  1  0
 27 28  1  0
 28 29  1  0
  8 30  1  0
 30 31  2  0
 31  5  1  0
 17 13  1  0
 29 22  1  0
  4 32  1  0
  4 33  1  0
  6 34  1  0
  7 35  1  0
  9 36  1  0
  9 37  1  0
 10 38  1  0
 13 39  1  6
 14 40  1  0
 14 41  1  0
 15 42  1  0
 15 43  1  0
 16 44  1  0
 16 45  1  0
 20 46  1  0
 20 47  1  0
 21 48  1  0
 22 49  1  0
 23 50  1  0
 23 51  1  0
 24 52  1  0
 24 53  1  0
 25 54  1  0
 25 55  1  0
 26 56  1  0
 26 57  1  0
 27 58  1  0
 27 59  1  0
 28 60  1  0
 28 61  1  0
 29 62  1  0
 29 63  1  0
 30 64  1  0
M  END
>  <meeko>  (5) 
{"is_sidechain": [false], "free_energy": -4.565, "intermolecular_energy": -8.734, "internal_energy": -0.711}

$$$$
