MODEL 1
REMARK VINA RESULT:    -5.295      0.000      0.000
REMARK INTER + INTRA:         -10.836
REMARK INTER:                 -10.093
REMARK INTRA:                  -0.743
REMARK UNBOUND:                -0.743
REMARK SMILES [H]/N=C(\N)c1ccc(CNC(=O)[C@@H]2CCCN2C(=O)CNC2CCCCCCC2)cn1
REMARK SMILES IDX 18 1 19 2 20 3 21 4 22 6 23 7 24 8 29 10 28 11 27 12 26 13
REMARK SMILES IDX 25 14 17 16 13 17 16 18 14 19 15 20 11 21 10 22 12 23 9 25
REMARK SMILES IDX 8 26 7 27 30 28 6 29 31 30 5 31 3 32 4 33 2 36 1 37
REMARK H PARENT 21 5 10 24 4 34 4 35
REMARK Flexibility Score:  112.900
ROOT
ATOM      1  C   UNL     1      18.141  -9.558  12.184  1.00  0.00     0.237 C 
ATOM      2  O   UNL     1      18.590  -9.137  11.113  1.00  0.00    -0.273 OA
ENDROOT
BRANCH   1   3
ATOM      3  C   UNL     1      17.405 -10.905  12.299  1.00  0.00     0.182 C 
BRANCH   3   4
ATOM      4  N   UNL     1      18.347 -12.040  12.397  1.00  0.00    -0.306 NA
ATOM      5  H   UNL     1      19.271 -11.628  12.565  1.00  0.00     0.123 HD
BRANCH   4   6
ATOM      6  C   UNL     1      18.412 -12.858  11.168  1.00  0.00     0.054 C 
BRANCH   6   7
ATOM      7  C   UNL     1      18.441 -14.354  11.556  1.00  0.00     0.019 C 
BRANCH   7   8
ATOM      8  C   UNL     1      19.234 -15.289  10.640  1.00  0.00     0.002 CG0
ATOM      9  G   UNL     1      18.418 -15.910   9.498  1.00  0.00     0.000 G0
ENDBRANCH   7   8
ENDBRANCH   6   7
BRANCH   6  10
ATOM     10  C   UNL     1      17.265 -12.451  10.222  1.00  0.00     0.019 C 
BRANCH  10  11
ATOM     11  C   UNL     1      16.160 -13.496  10.071  1.00  0.00     0.002 C 
BRANCH  11  12
ATOM     12  C   UNL     1      16.355 -14.440   8.885  1.00  0.00     0.000 C 
BRANCH  12  13
ATOM     13  C   UNL     1      17.784 -14.866   8.551  1.00  0.00     0.000 C 
BRANCH  13  14
ATOM     14  C   UNL     1      18.409 -15.896   9.489  1.00  0.00     0.000 CG0
ATOM     15  G   UNL     1      19.228 -15.301  10.641  1.00  0.00     0.000 G0
ENDBRANCH  13  14
ENDBRANCH  12  13
ENDBRANCH  11  12
ENDBRANCH  10  11
ENDBRANCH   6  10
ENDBRANCH   4   6
ENDBRANCH   3   4
ENDBRANCH   1   3
BRANCH   1  16
ATOM     16  N   UNL     1      18.298  -8.844  13.352  1.00  0.00    -0.330 N 
ATOM     17  C   UNL     1      17.137  -8.442  14.140  1.00  0.00     0.174 C 
ATOM     18  C   UNL     1      19.535  -8.416  13.975  1.00  0.00     0.120 C 
ATOM     19  C   UNL     1      17.725  -7.834  15.420  1.00  0.00     0.037 C 
ATOM     20  C   UNL     1      19.168  -8.327  15.447  1.00  0.00     0.024 C 
BRANCH  17  21
ATOM     21  C   UNL     1      16.298  -7.371  13.409  1.00  0.00     0.243 C 
ATOM     22  N   UNL     1      16.945  -6.156  13.271  1.00  0.00    -0.350 N 
ATOM     23  O   UNL     1      15.195  -7.594  12.916  1.00  0.00    -0.273 OA
ATOM     24  H   UNL     1      17.701  -5.957  13.913  1.00  0.00     0.163 HD
BRANCH  22  25
ATOM     25  C   UNL     1      16.230  -5.030  12.716  1.00  0.00     0.153 C 
BRANCH  25  26
ATOM     26  C   UNL     1      16.805  -4.632  11.388  1.00  0.00    -0.010 A 
ATOM     27  C   UNL     1      16.216  -3.620  10.621  1.00  0.00     0.009 A 
ATOM     28  C   UNL     1      17.919  -5.280  10.861  1.00  0.00     0.117 A 
ATOM     29  C   UNL     1      16.762  -3.285   9.385  1.00  0.00     0.032 A 
ATOM     30  N   UNL     1      18.472  -4.989   9.662  1.00  0.00    -0.253 NA
ATOM     31  C   UNL     1      17.875  -3.990   8.954  1.00  0.00     0.104 A 
BRANCH  31  32
ATOM     32  C   UNL     1      18.527  -3.677   7.638  1.00  0.00     0.141 C 
ATOM     33  N   UNL     1      17.731  -3.485   6.540  1.00  0.00    -0.382 N 
ATOM     34  H   UNL     1      16.763  -3.754   6.733  1.00  0.00     0.158 HD
ATOM     35  H   UNL     1      18.070  -3.938   5.701  1.00  0.00     0.158 HD
BRANCH  32  36
ATOM     36  N   UNL     1      19.816  -3.608   7.527  1.00  0.00    -0.283 NA
ATOM     37  H   UNL     1      20.165  -4.539   7.278  1.00  0.00     0.189 HD
ENDBRANCH  32  36
ENDBRANCH  31  32
ENDBRANCH  25  26
ENDBRANCH  22  25
ENDBRANCH  17  21
ENDBRANCH   1  16
TORSDOF 9
ENDMDL
MODEL 2
REMARK VINA RESULT:    -5.205      1.610      2.007
REMARK INTER + INTRA:         -10.664
REMARK INTER:                 -10.137
REMARK INTRA:                  -0.527
REMARK UNBOUND:                -0.743
REMARK SMILES [H]/N=C(\N)c1ccc(CNC(=O)[C@@H]2CCCN2C(=O)CNC2CCCCCCC2)cn1
REMARK SMILES IDX 18 1 19 2 20 3 21 4 22 6 23 7 24 8 29 10 28 11 27 12 26 13
REMARK SMILES IDX 25 14 17 16 13 17 16 18 14 19 15 20 11 21 10 22 12 23 9 25
REMARK SMILES IDX 8 26 7 27 30 28 6 29 31 30 5 31 3 32 4 33 2 36 1 37
REMARK H PARENT 21 5 10 24 4 34 4 35
REMARK Flexibility Score:  112.900
ROOT
ATOM      1  C   UNL     1      17.191 -10.331  13.195  1.00  0.00     0.237 C 
ATOM      2  O   UNL     1      17.420  -9.328  12.512  1.00  0.00    -0.273 OA
ENDROOT
BRANCH   1   3
ATOM      3  C   UNL     1      18.011 -11.627  13.060  1.00  0.00     0.182 C 
BRANCH   3   4
ATOM      4  N   UNL     1      17.267 -12.676  12.332  1.00  0.00    -0.306 NA
ATOM      5  H   UNL     1      17.051 -13.402  13.022  1.00  0.00     0.123 HD
BRANCH   4   6
ATOM      6  C   UNL     1      18.041 -13.288  11.231  1.00  0.00     0.054 C 
BRANCH   6   7
ATOM      7  C   UNL     1      18.138 -14.812  11.466  1.00  0.00     0.019 C 
BRANCH   7   8
ATOM      8  C   UNL     1      19.131 -15.583  10.593  1.00  0.00     0.002 CG0
ATOM      9  G   UNL     1      18.537 -16.156   9.300  1.00  0.00     0.000 G0
ENDBRANCH   7   8
ENDBRANCH   6   7
BRANCH   6  10
ATOM     10  C   UNL     1      17.423 -12.873   9.881  1.00  0.00     0.019 C 
BRANCH  10  11
ATOM     11  C   UNL     1      16.164 -13.647   9.489  1.00  0.00     0.002 C 
BRANCH  11  12
ATOM     12  C   UNL     1      16.427 -14.834   8.562  1.00  0.00     0.000 C 
BRANCH  12  13
ATOM     13  C   UNL     1      17.013 -16.099   9.187  1.00  0.00     0.000 C 
BRANCH  13  14
ATOM     14  C   UNL     1      18.536 -16.151   9.285  1.00  0.00     0.000 CG0
ATOM     15  G   UNL     1      19.117 -15.553  10.573  1.00  0.00     0.000 G0
ENDBRANCH  13  14
ENDBRANCH  12  13
ENDBRANCH  11  12
ENDBRANCH  10  11
ENDBRANCH   6  10
ENDBRANCH   4   6
ENDBRANCH   3   4
ENDBRANCH   1   3
BRANCH   1  16
ATOM     16  N   UNL     1      16.191 -10.335  14.143  1.00  0.00    -0.330 N 
ATOM     17  C   UNL     1      15.150  -9.311  14.131  1.00  0.00     0.174 C 
ATOM     18  C   UNL     1      15.988 -11.284  15.219  1.00  0.00     0.120 C 
ATOM     19  C   UNL     1      14.154  -9.754  15.211  1.00  0.00     0.037 C 
ATOM     20  C   UNL     1      14.488 -11.221  15.457  1.00  0.00     0.024 C 
BRANCH  17  21
ATOM     21  C   UNL     1      15.716  -7.923  14.501  1.00  0.00     0.243 C 
ATOM     22  N   UNL     1      15.699  -7.019  13.455  1.00  0.00    -0.350 N 
ATOM     23  O   UNL     1      16.069  -7.616  15.637  1.00  0.00    -0.273 OA
ATOM     24  H   UNL     1      15.661  -7.394  12.516  1.00  0.00     0.163 HD
BRANCH  22  25
ATOM     25  C   UNL     1      16.311  -5.721  13.627  1.00  0.00     0.153 C 
BRANCH  25  26
ATOM     26  C   UNL     1      16.759  -5.159  12.311  1.00  0.00    -0.010 A 
ATOM     27  C   UNL     1      16.308  -3.910  11.868  1.00  0.00     0.009 A 
ATOM     28  C   UNL     1      17.607  -5.877  11.471  1.00  0.00     0.117 A 
ATOM     29  C   UNL     1      16.726  -3.423  10.633  1.00  0.00     0.032 A 
ATOM     30  N   UNL     1      18.028  -5.442  10.262  1.00  0.00    -0.253 NA
ATOM     31  C   UNL     1      17.575  -4.216   9.876  1.00  0.00     0.104 A 
BRANCH  31  32
ATOM     32  C   UNL     1      18.080  -3.753   8.539  1.00  0.00     0.141 C 
ATOM     33  N   UNL     1      19.431  -3.749   8.313  1.00  0.00    -0.382 N 
ATOM     34  H   UNL     1      19.951  -3.913   9.178  1.00  0.00     0.158 HD
ATOM     35  H   UNL     1      19.766  -2.919   7.842  1.00  0.00     0.158 HD
BRANCH  32  36
ATOM     36  N   UNL     1      17.264  -3.344   7.620  1.00  0.00    -0.283 NA
ATOM     37  H   UNL     1      16.809  -4.164   7.208  1.00  0.00     0.189 HD
ENDBRANCH  32  36
ENDBRANCH  31  32
ENDBRANCH  25  26
ENDBRANCH  22  25
ENDBRANCH  17  21
ENDBRANCH   1  16
TORSDOF 9
ENDMDL
MODEL 3
REMARK VINA RESULT:    -4.989      1.267      1.612
REMARK INTER + INTRA:         -10.253
REMARK INTER:                  -9.726
REMARK INTRA:                  -0.527
REMARK UNBOUND:                -0.743
REMARK SMILES [H]/N=C(\N)c1ccc(CNC(=O)[C@@H]2CCCN2C(=O)CNC2CCCCCCC2)cn1
REMARK SMILES IDX 18 1 19 2 20 3 21 4 22 6 23 7 24 8 29 10 28 11 27 12 26 13
REMARK SMILES IDX 25 14 17 16 13 17 16 18 14 19 15 20 11 21 10 22 12 23 9 25
REMARK SMILES IDX 8 26 7 27 30 28 6 29 31 30 5 31 3 32 4 33 2 36 1 37
REMARK H PARENT 21 5 10 24 4 34 4 35
REMARK Flexibility Score:  112.900
ROOT
ATOM      1  C   UNL     1      17.856  -8.865  12.590  1.00  0.00     0.237 C 
ATOM      2  O   UNL     1      18.717  -8.025  12.314  1.00  0.00    -0.273 OA
ENDROOT
BRANCH   1   3
ATOM      3  C   UNL     1      17.571 -10.084  11.693  1.00  0.00     0.182 C 
BRANCH   3   4
ATOM      4  N   UNL     1      17.707 -11.355  12.434  1.00  0.00    -0.306 NA
ATOM      5  H   UNL     1      18.384 -11.177  13.182  1.00  0.00     0.123 HD
BRANCH   4   6
ATOM      6  C   UNL     1      18.206 -12.470  11.601  1.00  0.00     0.054 C 
BRANCH   6   7
ATOM      7  C   UNL     1      17.908 -13.808  12.314  1.00  0.00     0.019 C 
BRANCH   7   8
ATOM      8  C   UNL     1      18.718 -15.026  11.862  1.00  0.00     0.002 CG0
ATOM      9  G   UNL     1      18.040 -15.883  10.785  1.00  0.00     0.000 G0
ENDBRANCH   7   8
ENDBRANCH   6   7
BRANCH   6  10
ATOM     10  C   UNL     1      17.627 -12.344  10.178  1.00  0.00     0.019 C 
BRANCH  10  11
ATOM     11  C   UNL     1      16.566 -13.387   9.826  1.00  0.00     0.002 C 
BRANCH  11  12
ATOM     12  C   UNL     1      17.056 -14.472   8.868  1.00  0.00     0.000 C 
BRANCH  12  13
ATOM     13  C   UNL     1      18.176 -15.390   9.355  1.00  0.00     0.000 C 
BRANCH  13  14
ATOM     14  C   UNL     1      18.043 -15.901  10.788  1.00  0.00     0.000 CG0
ATOM     15  G   UNL     1      18.727 -15.028  11.848  1.00  0.00     0.000 G0
ENDBRANCH  13  14
ENDBRANCH  12  13
ENDBRANCH  11  12
ENDBRANCH  10  11
ENDBRANCH   6  10
ENDBRANCH   4   6
ENDBRANCH   3   4
ENDBRANCH   1   3
BRANCH   1  16
ATOM     16  N   UNL     1      17.109  -8.767  13.745  1.00  0.00    -0.330 N 
ATOM     17  C   UNL     1      15.943  -7.890  13.804  1.00  0.00     0.174 C 
ATOM     18  C   UNL     1      17.308  -9.469  14.997  1.00  0.00     0.120 C 
ATOM     19  C   UNL     1      15.300  -8.186  15.166  1.00  0.00     0.037 C 
ATOM     20  C   UNL     1      15.911  -9.517  15.592  1.00  0.00     0.024 C 
BRANCH  17  21
ATOM     21  C   UNL     1      16.350  -6.401  13.749  1.00  0.00     0.243 C 
ATOM     22  N   UNL     1      15.986  -5.768  12.574  1.00  0.00    -0.350 N 
ATOM     23  O   UNL     1      16.871  -5.805  14.689  1.00  0.00    -0.273 OA
ATOM     24  H   UNL     1      15.820  -6.351  11.764  1.00  0.00     0.163 HD
BRANCH  22  25
ATOM     25  C   UNL     1      16.412  -4.408  12.339  1.00  0.00     0.153 C 
BRANCH  25  26
ATOM     26  C   UNL     1      17.004  -4.260  10.968  1.00  0.00    -0.010 A 
ATOM     27  C   UNL     1      18.218  -4.873  10.636  1.00  0.00     0.009 A 
ATOM     28  C   UNL     1      16.384  -3.480   9.995  1.00  0.00     0.117 A 
ATOM     29  C   UNL     1      18.752  -4.702   9.361  1.00  0.00     0.032 A 
ATOM     30  N   UNL     1      16.875  -3.284   8.750  1.00  0.00    -0.253 NA
ATOM     31  C   UNL     1      18.052  -3.908   8.466  1.00  0.00     0.104 A 
BRANCH  31  32
ATOM     32  C   UNL     1      18.557  -3.688   7.069  1.00  0.00     0.141 C 
ATOM     33  N   UNL     1      17.673  -3.272   6.109  1.00  0.00    -0.382 N 
ATOM     34  H   UNL     1      16.709  -3.326   6.445  1.00  0.00     0.158 HD
ATOM     35  H   UNL     1      17.773  -3.750   5.223  1.00  0.00     0.158 HD
BRANCH  32  36
ATOM     36  N   UNL     1      19.797  -3.905   6.762  1.00  0.00    -0.283 NA
ATOM     37  H   UNL     1      20.304  -3.018   6.837  1.00  0.00     0.189 HD
ENDBRANCH  32  36
ENDBRANCH  31  32
ENDBRANCH  25  26
ENDBRANCH  22  25
ENDBRANCH  17  21
ENDBRANCH   1  16
TORSDOF 9
ENDMDL
MODEL 4
REMARK VINA RESULT:    -4.611      1.266      1.709
REMARK INTER + INTRA:          -9.533
REMARK INTER:                  -8.982
REMARK INTRA:                  -0.550
REMARK UNBOUND:                -0.743
REMARK SMILES [H]/N=C(\N)c1ccc(CNC(=O)[C@@H]2CCCN2C(=O)CNC2CCCCCCC2)cn1
REMARK SMILES IDX 18 1 19 2 20 3 21 4 22 6 23 7 24 8 29 10 28 11 27 12 26 13
REMARK SMILES IDX 25 14 17 16 13 17 16 18 14 19 15 20 11 21 10 22 12 23 9 25
REMARK SMILES IDX 8 26 7 27 30 28 6 29 31 30 5 31 3 32 4 33 2 36 1 37
REMARK H PARENT 21 5 10 24 4 34 4 35
REMARK Flexibility Score:  112.900
ROOT
ATOM      1  C   UNL     1      18.520 -10.009  12.097  1.00  0.00     0.237 C 
ATOM      2  O   UNL     1      18.281  -9.519  10.989  1.00  0.00    -0.273 OA
ENDROOT
BRANCH   1   3
ATOM      3  C   UNL     1      17.712 -11.186  12.672  1.00  0.00     0.182 C 
BRANCH   3   4
ATOM      4  N   UNL     1      18.447 -12.464  12.561  1.00  0.00    -0.306 NA
ATOM      5  H   UNL     1      19.442 -12.225  12.616  1.00  0.00     0.123 HD
BRANCH   4   6
ATOM      6  C   UNL     1      18.203 -13.173  11.288  1.00  0.00     0.054 C 
BRANCH   6   7
ATOM      7  C   UNL     1      18.997 -14.499  11.285  1.00  0.00     0.019 C 
BRANCH   7   8
ATOM      8  C   UNL     1      19.418 -15.048   9.920  1.00  0.00     0.002 CG0
ATOM      9  G   UNL     1      18.319 -15.814   9.172  1.00  0.00     0.000 G0
ENDBRANCH   7   8
ENDBRANCH   6   7
BRANCH   6  10
ATOM     10  C   UNL     1      16.684 -13.323  11.069  1.00  0.00     0.019 C 
BRANCH  10  11
ATOM     11  C   UNL     1      16.225 -13.142   9.623  1.00  0.00     0.002 C 
BRANCH  11  12
ATOM     12  C   UNL     1      16.150 -14.444   8.826  1.00  0.00     0.000 C 
BRANCH  12  13
ATOM     13  C   UNL     1      17.449 -14.977   8.224  1.00  0.00     0.000 C 
BRANCH  13  14
ATOM     14  C   UNL     1      18.309 -15.837   9.149  1.00  0.00     0.000 CG0
ATOM     15  G   UNL     1      19.409 -15.073   9.897  1.00  0.00     0.000 G0
ENDBRANCH  13  14
ENDBRANCH  12  13
ENDBRANCH  11  12
ENDBRANCH  10  11
ENDBRANCH   6  10
ENDBRANCH   4   6
ENDBRANCH   3   4
ENDBRANCH   1   3
BRANCH   1  16
ATOM     16  N   UNL     1      19.554  -9.536  12.877  1.00  0.00    -0.330 N 
ATOM     17  C   UNL     1      19.326  -9.167  14.270  1.00  0.00     0.174 C 
ATOM     18  C   UNL     1      20.942  -9.355  12.501  1.00  0.00     0.120 C 
ATOM     19  C   UNL     1      20.722  -8.862  14.828  1.00  0.00     0.037 C 
ATOM     20  C   UNL     1      21.679  -9.495  13.823  1.00  0.00     0.024 C 
BRANCH  17  21
ATOM     21  C   UNL     1      18.446  -7.902  14.385  1.00  0.00     0.243 C 
ATOM     22  N   UNL     1      17.415  -7.856  13.465  1.00  0.00    -0.350 N 
ATOM     23  O   UNL     1      18.589  -7.054  15.263  1.00  0.00    -0.273 OA
ATOM     24  H   UNL     1      17.514  -8.416  12.627  1.00  0.00     0.163 HD
BRANCH  22  25
ATOM     25  C   UNL     1      16.591  -6.673  13.380  1.00  0.00     0.153 C 
BRANCH  25  26
ATOM     26  C   UNL     1      16.946  -5.856  12.173  1.00  0.00    -0.010 A 
ATOM     27  C   UNL     1      16.161  -4.766  11.781  1.00  0.00     0.009 A 
ATOM     28  C   UNL     1      18.047  -6.178  11.384  1.00  0.00     0.117 A 
ATOM     29  C   UNL     1      16.506  -4.039  10.646  1.00  0.00     0.032 A 
ATOM     30  N   UNL     1      18.410  -5.502  10.270  1.00  0.00    -0.253 NA
ATOM     31  C   UNL     1      17.625  -4.441   9.932  1.00  0.00     0.104 A 
BRANCH  31  32
ATOM     32  C   UNL     1      18.067  -3.698   8.704  1.00  0.00     0.141 C 
ATOM     33  N   UNL     1      19.408  -3.601   8.443  1.00  0.00    -0.382 N 
ATOM     34  H   UNL     1      19.964  -3.920   9.240  1.00  0.00     0.158 HD
ATOM     35  H   UNL     1      19.703  -2.681   8.143  1.00  0.00     0.158 HD
BRANCH  32  36
ATOM     36  N   UNL     1      17.208  -3.138   7.913  1.00  0.00    -0.283 NA
ATOM     37  H   UNL     1      17.706  -2.815   7.078  1.00  0.00     0.189 HD
ENDBRANCH  32  36
ENDBRANCH  31  32
ENDBRANCH  25  26
ENDBRANCH  22  25
ENDBRANCH  17  21
ENDBRANCH   1  16
TORSDOF 9
ENDMDL
MODEL 5
REMARK VINA RESULT:    -4.565      1.663      2.258
REMARK INTER + INTRA:          -9.445
REMARK INTER:                  -8.734
REMARK INTRA:                  -0.711
REMARK UNBOUND:                -0.743
REMARK SMILES [H]/N=C(\N)c1ccc(CNC(=O)[C@@H]2CCCN2C(=O)CNC2CCCCCCC2)cn1
REMARK SMILES IDX 18 1 19 2 20 3 21 4 22 6 23 7 24 8 29 10 28 11 27 12 26 13
REMARK SMILES IDX 25 14 17 16 13 17 16 18 14 19 15 20 11 21 10 22 12 23 9 25
REMARK SMILES IDX 8 26 7 27 30 28 6 29 31 30 5 31 3 32 4 33 2 36 1 37
REMARK H PARENT 21 5 10 24 4 34 4 35
REMARK Flexibility Score:  112.900
ROOT
ATOM      1  C   UNL     1      18.108  -8.779  12.928  1.00  0.00     0.237 C 
ATOM      2  O   UNL     1      17.819  -8.694  11.731  1.00  0.00    -0.273 OA
ENDROOT
BRANCH   1   3
ATOM      3  C   UNL     1      19.564  -8.847  13.425  1.00  0.00     0.182 C 
BRANCH   3   4
ATOM      4  N   UNL     1      20.071 -10.234  13.456  1.00  0.00    -0.306 NA
ATOM      5  H   UNL     1      21.064 -10.180  13.209  1.00  0.00     0.123 HD
BRANCH   4   6
ATOM      6  C   UNL     1      19.394 -11.129  12.493  1.00  0.00     0.054 C 
BRANCH   6   7
ATOM      7  C   UNL     1      20.435 -11.671  11.488  1.00  0.00     0.019 C 
BRANCH   7   8
ATOM      8  C   UNL     1      19.966 -11.862  10.044  1.00  0.00     0.002 CG0
ATOM      9  G   UNL     1      19.113 -13.115   9.808  1.00  0.00     0.000 G0
ENDBRANCH   7   8
ENDBRANCH   6   7
BRANCH   6  10
ATOM     10  C   UNL     1      18.607 -12.208  13.264  1.00  0.00     0.019 C 
BRANCH  10  11
ATOM     11  C   UNL     1      17.486 -12.873  12.466  1.00  0.00     0.002 C 
BRANCH  11  12
ATOM     12  C   UNL     1      17.889 -14.194  11.811  1.00  0.00     0.000 C 
BRANCH  12  13
ATOM     13  C   UNL     1      19.119 -14.184  10.904  1.00  0.00     0.000 C 
BRANCH  13  14
ATOM     14  C   UNL     1      19.111 -13.149   9.781  1.00  0.00     0.000 CG0
ATOM     15  G   UNL     1      19.950 -11.895  10.057  1.00  0.00     0.000 G0
ENDBRANCH  13  14
ENDBRANCH  12  13
ENDBRANCH  11  12
ENDBRANCH  10  11
ENDBRANCH   6  10
ENDBRANCH   4   6
ENDBRANCH   3   4
ENDBRANCH   1   3
BRANCH   1  16
ATOM     16  N   UNL     1      17.129  -8.796  13.898  1.00  0.00    -0.330 N 
ATOM     17  C   UNL     1      15.862  -8.101  13.689  1.00  0.00     0.174 C 
ATOM     18  C   UNL     1      17.160  -9.466  15.183  1.00  0.00     0.120 C 
ATOM     19  C   UNL     1      14.997  -8.494  14.894  1.00  0.00     0.037 C 
ATOM     20  C   UNL     1      15.691  -9.722  15.475  1.00  0.00     0.024 C 
BRANCH  17  21
ATOM     21  C   UNL     1      16.052  -6.568  13.679  1.00  0.00     0.243 C 
ATOM     22  N   UNL     1      16.146  -6.028  12.409  1.00  0.00    -0.350 N 
ATOM     23  O   UNL     1      16.034  -5.876  14.694  1.00  0.00    -0.273 OA
ATOM     24  H   UNL     1      16.424  -6.648  11.659  1.00  0.00     0.163 HD
BRANCH  22  25
ATOM     25  C   UNL     1      16.447  -4.623  12.255  1.00  0.00     0.153 C 
BRANCH  25  26
ATOM     26  C   UNL     1      17.003  -4.339  10.891  1.00  0.00    -0.010 A 
ATOM     27  C   UNL     1      16.285  -3.577   9.963  1.00  0.00     0.009 A 
ATOM     28  C   UNL     1      18.234  -4.856  10.493  1.00  0.00     0.117 A 
ATOM     29  C   UNL     1      16.819  -3.346   8.698  1.00  0.00     0.032 A 
ATOM     30  N   UNL     1      18.781  -4.660   9.271  1.00  0.00    -0.253 NA
ATOM     31  C   UNL     1      18.054  -3.902   8.404  1.00  0.00     0.104 A 
BRANCH  31  32
ATOM     32  C   UNL     1      18.700  -3.686   7.065  1.00  0.00     0.141 C 
ATOM     33  N   UNL     1      17.922  -3.257   6.023  1.00  0.00    -0.382 N 
ATOM     34  H   UNL     1      16.928  -3.300   6.261  1.00  0.00     0.158 HD
ATOM     35  H   UNL     1      18.105  -3.734   5.150  1.00  0.00     0.158 HD
BRANCH  32  36
ATOM     36  N   UNL     1      19.961  -3.917   6.884  1.00  0.00    -0.283 NA
ATOM     37  H   UNL     1      20.201  -3.645   5.926  1.00  0.00     0.189 HD
ENDBRANCH  32  36
ENDBRANCH  31  32
ENDBRANCH  25  26
ENDBRANCH  22  25
ENDBRANCH  17  21
ENDBRANCH   1  16
TORSDOF 9
ENDMDL
