13U_modified_methyl
     RDKit          3D

 68 70  0  0  0  0  0  0  0  0999 V2000
   17.1570  -15.9080    7.3860 H   0  0  0  0  0  0  0  0  0  0  0  0
   16.7590  -15.1310    7.9230 N   0  0  0  0  0  0  0  0  0  0  0  0
   17.2300  -15.1260    9.1290 C   0  0  0  0  0  0  0  0  0  0  0  0
   17.2730  -16.3100    9.8000 N   0  0  0  0  0  0  0  0  0  0  0  0
   17.7280  -13.8810    9.7680 C   0  0  0  0  0  0  0  0  0  0  0  0
   16.7760  -12.9320   10.1650 C   0  0  0  0  0  0  0  0  0  0  0  0
   17.1830  -11.7400   10.7620 C   0  0  0  0  0  0  0  0  0  0  0  0
   18.5440  -11.4740   10.9590 C   0  0  0  0  0  0  0  0  0  0  0  0
   18.9790  -10.2090   11.6490 C   0  0  0  0  0  0  0  0  0  0  0  0
   17.9280   -9.2220   11.5880 N   0  0  0  0  0  0  0  0  0  0  0  0
   18.0830   -8.0050   12.2200 C   0  0  0  0  0  0  0  0  0  0  0  0
   19.1420   -7.6410   12.7260 O   0  0  0  0  0  0  0  0  0  0  0  0
   16.8180   -7.1240   12.1880 C   0  0  2  0  0  0  0  0  0  0  0  0
   17.1160   -5.8220   11.4350 C   0  0  0  0  0  0  0  0  0  0  0  0
   16.4310   -4.7450   12.2670 C   0  0  0  0  0  0  0  0  0  0  0  0
   16.5660   -5.2620   13.6890 C   0  0  0  0  0  0  0  0  0  0  0  0
   16.4500   -6.7000   13.5360 N   0  0  0  0  0  0  0  0  0  0  0  0
   15.9930   -7.6180   14.4560 C   0  0  0  0  0  0  0  0  0  0  0  0
   16.3910   -7.5970   15.6250 O   0  0  0  0  0  0  0  0  0  0  0  0
   14.9290   -8.6180   13.9670 C   0  0  0  0  0  0  0  0  0  0  0  0
   14.2840   -9.2730   15.1220 N   0  0  0  0  0  0  0  0  0  0  0  0
   14.4920  -10.7330   15.1620 C   0  0  0  0  0  0  0  0  0  0  0  0
   14.8330  -11.1370   16.6120 C   0  0  0  0  0  0  0  0  0  0  0  0
   16.3010  -10.9250   17.0050 C   0  0  0  0  0  0  0  0  0  0  0  0
   17.2810  -12.1160   16.8560 C   0  0  0  0  0  0  0  0  0  0  0  0
   17.9620  -12.2250   15.4910 C   0  0  0  0  0  0  0  0  0  0  0  0
   17.2340  -13.0920   14.4650 C   0  0  0  0  0  0  0  0  0  0  0  0
   15.8980  -12.5860   13.9320 C   0  0  0  0  0  0  0  0  0  0  0  0
   15.6010  -11.1040   14.1560 C   0  0  0  0  0  0  0  0  0  0  0  0
   19.4910  -12.4340   10.5670 C   0  0  0  0  0  0  0  0  0  0  0  0
   19.0990  -13.6500    9.9800 C   0  0  0  0  0  0  0  0  0  0  0  0
   20.1530  -14.6540    9.6010 C   0  0  0  0  0  0  0  0  0  0  0  0
   17.1350  -17.0960    9.1730 H   0  0  0  0  0  0  0  0  0  0  0  0
   18.0550  -16.4350   10.4300 H   0  0  0  0  0  0  0  0  0  0  0  0
   15.7055  -13.1283   10.0051 H   0  0  0  0  0  0  0  0  0  0  0  0
   16.4305  -11.0035   11.0804 H   0  0  0  0  0  0  0  0  0  0  0  0
   19.2095  -10.4300   12.7016 H   0  0  0  0  0  0  0  0  0  0  0  0
   19.8728   -9.8136   11.1442 H   0  0  0  0  0  0  0  0  0  0  0  0
   16.9810   -9.5800   11.5280 H   0  0  0  0  0  0  0  0  0  0  0  0
   16.0215   -7.7173   11.7152 H   0  0  0  0  0  0  0  0  0  0  0  0
   18.1998   -5.6423   11.3800 H   0  0  0  0  0  0  0  0  0  0  0  0
   16.7566   -5.8442   10.3956 H   0  0  0  0  0  0  0  0  0  0  0  0
   16.9376   -3.7756   12.1506 H   0  0  0  0  0  0  0  0  0  0  0  0
   15.3862   -4.5715   11.9698 H   0  0  0  0  0  0  0  0  0  0  0  0
   17.5422   -4.9890   14.1161 H   0  0  0  0  0  0  0  0  0  0  0  0
   15.8141   -4.8407   14.3725 H   0  0  0  0  0  0  0  0  0  0  0  0
   14.1682   -8.0826   13.3800 H   0  0  0  0  0  0  0  0  0  0  0  0
   15.4124   -9.3828   13.3414 H   0  0  0  0  0  0  0  0  0  0  0  0
   13.2850   -9.0510   15.0760 H   0  0  0  0  0  0  0  0  0  0  0  0
   13.5873  -11.2849   14.8673 H   0  0  0  0  0  0  0  0  0  0  0  0
   14.2063  -10.5402   17.2910 H   0  0  0  0  0  0  0  0  0  0  0  0
   14.6426  -12.2177   16.6878 H   0  0  0  0  0  0  0  0  0  0  0  0
   16.6891  -10.1043   16.3839 H   0  0  0  0  0  0  0  0  0  0  0  0
   16.2673  -10.7352   18.0880 H   0  0  0  0  0  0  0  0  0  0  0  0
   18.0645  -12.0111   17.6210 H   0  0  0  0  0  0  0  0  0  0  0  0
   16.6769  -13.0279   16.9722 H   0  0  0  0  0  0  0  0  0  0  0  0
   18.0535  -11.2108   15.0750 H   0  0  0  0  0  0  0  0  0  0  0  0
   18.9294  -12.7162   15.6723 H   0  0  0  0  0  0  0  0  0  0  0  0
   17.9062  -13.2159   13.6031 H   0  0  0  0  0  0  0  0  0  0  0  0
   16.9856  -14.0163   15.0073 H   0  0  0  0  0  0  0  0  0  0  0  0
   15.8765  -12.7727   12.8482 H   0  0  0  0  0  0  0  0  0  0  0  0
   15.1289  -13.1299   14.5001 H   0  0  0  0  0  0  0  0  0  0  0  0
   16.5314  -10.6329   14.5060 H   0  0  0  0  0  0  0  0  0  0  0  0
   15.2227  -10.7493   13.1859 H   0  0  0  0  0  0  0  0  0  0  0  0
   20.5608  -12.2306   10.7223 H   0  0  0  0  0  0  0  0  0  0  0  0
   20.5991  -15.0790   10.5122 H   0  0  0  0  0  0  0  0  0  0  0  0
   19.6959  -15.4589    9.0068 H   0  0  0  0  0  0  0  0  0  0  0  0
   20.9348  -14.1583    9.0068 H   0  0  0  0  0  0  0  0  0  0  0  0
  1  2  1  0
  2  3  2  0
  3  4  1  0
  3  5  1  0
  5  6  2  0
  6  7  1  0
  7  8  2  0
  8  9  1  0
  9 10  1  0
 10 11  1  0
 11 12  2  0
 11 13  1  0
 13 14  1  0
 14 15  1  0
 15 16  1  0
 16 17  1  0
 17 18  1  0
 18 19  2  0
 18 20  1  0
 20 21  1  0
 21 22  1  0
 22 23  1  0
 23 24  1  0
 24 25  1  0
 25 26  1  0
 26 27  1  0
 27 28  1  0
 28 29  1  0
  8 30  1  0
 30 31  2  0
 31 32  1  0
 31  5  1  0
 17 13  1  0
 29 22  1  0
  4 33  1  0
  4 34  1  0
  6 35  1  0
  7 36  1  0
  9 37  1  0
  9 38  1  0
 10 39  1  0
 13 40  1  6
 14 41  1  0
 14 42  1  0
 15 43  1  0
 15 44  1  0
 16 45  1  0
 16 46  1  0
 20 47  1  0
 20 48  1  0
 21 49  1  0
 22 50  1  0
 23 51  1  0
 23 52  1  0
 24 53  1  0
 24 54  1  0
 25 55  1  0
 25 56  1  0
 26 57  1  0
 26 58  1  0
 27 59  1  0
 27 60  1  0
 28 61  1  0
 28 62  1  0
 29 63  1  0
 29 64  1  0
 30 65  1  0
 32 66  1  0
 32 67  1  0
 32 68  1  0
M  END
>  <meeko>  (1) 
{"is_sidechain": [false], "free_energy": -4.761, "intermolecular_energy": -9.076, "internal_energy": -1.644}

$$$$
13U_modified_methyl
     RDKit          3D

 68 70  0  0  0  0  0  0  0  0999 V2000
   17.3960  -17.3090    9.6170 H   0  0  0  0  0  0  0  0  0  0  0  0
   17.5980  -16.4840   10.1920 N   0  0  0  0  0  0  0  0  0  0  0  0
   17.8130  -15.4510    9.4420 C   0  0  0  0  0  0  0  0  0  0  0  0
   17.7180  -15.6130    8.0940 N   0  0  0  0  0  0  0  0  0  0  0  0
   18.1350  -14.1200   10.0190 C   0  0  0  0  0  0  0  0  0  0  0  0
   19.4510  -13.9040   10.4490 C   0  0  0  0  0  0  0  0  0  0  0  0
   19.8130  -12.6790   11.0070 C   0  0  0  0  0  0  0  0  0  0  0  0
   18.8640  -11.6600   11.1550 C   0  0  0  0  0  0  0  0  0  0  0  0
   19.2670  -10.3200   11.7120 C   0  0  0  0  0  0  0  0  0  0  0  0
   18.2410   -9.3410   11.4430 N   0  0  0  0  0  0  0  0  0  0  0  0
   18.2960   -8.0990   12.0430 C   0  0  0  0  0  0  0  0  0  0  0  0
   19.2610   -7.7100   12.6980 O   0  0  0  0  0  0  0  0  0  0  0  0
   17.0540   -7.2260   11.7730 C   0  0  2  0  0  0  0  0  0  0  0  0
   17.4940   -5.8510   11.2560 C   0  0  0  0  0  0  0  0  0  0  0  0
   16.5860   -4.8690   11.9860 C   0  0  0  0  0  0  0  0  0  0  0  0
   16.3680   -5.5310   13.3360 C   0  0  0  0  0  0  0  0  0  0  0  0
   16.3400   -6.9450   13.0160 N   0  0  0  0  0  0  0  0  0  0  0  0
   15.6920   -7.9560   13.6910 C   0  0  0  0  0  0  0  0  0  0  0  0
   14.6490   -8.4490   13.2490 O   0  0  0  0  0  0  0  0  0  0  0  0
   16.3640   -8.4730   14.9770 C   0  0  0  0  0  0  0  0  0  0  0  0
   15.6980   -9.7100   15.4320 N   0  0  0  0  0  0  0  0  0  0  0  0
   16.5170  -10.9220   15.2440 C   0  0  0  0  0  0  0  0  0  0  0  0
   18.0030  -10.5040   15.2010 C   0  0  0  0  0  0  0  0  0  0  0  0
   18.9510  -11.4410   15.9600 C   0  0  0  0  0  0  0  0  0  0  0  0
   19.4000  -12.7430   15.2560 C   0  0  0  0  0  0  0  0  0  0  0  0
   18.3220  -13.8210   15.1490 C   0  0  0  0  0  0  0  0  0  0  0  0
   17.4950  -13.7910   13.8640 C   0  0  0  0  0  0  0  0  0  0  0  0
   16.1060  -13.1650   13.9320 C   0  0  0  0  0  0  0  0  0  0  0  0
   16.0550  -11.6380   13.9580 C   0  0  0  0  0  0  0  0  0  0  0  0
   17.5490  -11.8810   10.7130 C   0  0  0  0  0  0  0  0  0  0  0  0
   17.1700  -13.1040   10.1310 C   0  0  0  0  0  0  0  0  0  0  0  0
   15.7550  -13.2800    9.6530 C   0  0  0  0  0  0  0  0  0  0  0  0
   17.2610  -16.4880    7.8570 H   0  0  0  0  0  0  0  0  0  0  0  0
   17.3550  -14.8220    7.5760 H   0  0  0  0  0  0  0  0  0  0  0  0
   20.2001  -14.7029   10.3460 H   0  0  0  0  0  0  0  0  0  0  0  0
   20.8502  -12.5118   11.3330 H   0  0  0  0  0  0  0  0  0  0  0  0
   19.4110  -10.4065   12.7991 H   0  0  0  0  0  0  0  0  0  0  0  0
   20.2044   -9.9991   11.2341 H   0  0  0  0  0  0  0  0  0  0  0  0
   17.3160   -9.7050   11.2470 H   0  0  0  0  0  0  0  0  0  0  0  0
   16.4244   -7.7713   11.0545 H   0  0  0  0  0  0  0  0  0  0  0  0
   18.5497   -5.6619   11.5004 H   0  0  0  0  0  0  0  0  0  0  0  0
   17.4130   -5.7665   10.1622 H   0  0  0  0  0  0  0  0  0  0  0  0
   17.0756   -3.8908   12.1014 H   0  0  0  0  0  0  0  0  0  0  0  0
   15.6475   -4.6694   11.4481 H   0  0  0  0  0  0  0  0  0  0  0  0
   17.1931   -5.2997   14.0257 H   0  0  0  0  0  0  0  0  0  0  0  0
   15.4532   -5.1866   13.8406 H   0  0  0  0  0  0  0  0  0  0  0  0
   17.4246   -8.6834   14.7747 H   0  0  0  0  0  0  0  0  0  0  0  0
   16.2791   -7.7072   15.7620 H   0  0  0  0  0  0  0  0  0  0  0  0
   14.8170   -9.7860   14.9160 H   0  0  0  0  0  0  0  0  0  0  0  0
   16.3954  -11.6330   16.0745 H   0  0  0  0  0  0  0  0  0  0  0  0
   18.3207  -10.4733   14.1483 H   0  0  0  0  0  0  0  0  0  0  0  0
   18.0666   -9.5252   15.6990 H   0  0  0  0  0  0  0  0  0  0  0  0
   19.8589  -10.8668   16.1965 H   0  0  0  0  0  0  0  0  0  0  0  0
   18.3650  -11.7838   16.8255 H   0  0  0  0  0  0  0  0  0  0  0  0
   19.7280  -12.4855   14.2381 H   0  0  0  0  0  0  0  0  0  0  0  0
   20.2018  -13.1689   15.8770 H   0  0  0  0  0  0  0  0  0  0  0  0
   18.8149  -14.8023   15.2133 H   0  0  0  0  0  0  0  0  0  0  0  0
   17.6160  -13.6283   15.9702 H   0  0  0  0  0  0  0  0  0  0  0  0
   18.0723  -13.2301   13.1143 H   0  0  0  0  0  0  0  0  0  0  0  0
   17.3128  -14.8491   13.6247 H   0  0  0  0  0  0  0  0  0  0  0  0
   15.5412  -13.5048   13.0513 H   0  0  0  0  0  0  0  0  0  0  0  0
   15.6832  -13.4902   14.8940 H   0  0  0  0  0  0  0  0  0  0  0  0
   16.6886  -11.2750   13.1353 H   0  0  0  0  0  0  0  0  0  0  0  0
   14.9849  -11.3964   13.8771 H   0  0  0  0  0  0  0  0  0  0  0  0
   16.8012  -11.0820   10.8243 H   0  0  0  0  0  0  0  0  0  0  0  0
   15.0829  -13.3636   10.5198 H   0  0  0  0  0  0  0  0  0  0  0  0
   15.4627  -12.4113    9.0448 H   0  0  0  0  0  0  0  0  0  0  0  0
   15.6844  -14.1938    9.0448 H   0  0  0  0  0  0  0  0  0  0  0  0
  1  2  1  0
  2  3  2  0
  3  4  1  0
  3  5  1  0
  5  6  2  0
  6  7  1  0
  7  8  2  0
  8  9  1  0
  9 10  1  0
 10 11  1  0
 11 12  2  0
 11 13  1  0
 13 14  1  0
 14 15  1  0
 15 16  1  0
 16 17  1  0
 17 18  1  0
 18 19  2  0
 18 20  1  0
 20 21  1  0
 21 22  1  0
 22 23  1  0
 23 24  1  0
 24 25  1  0
 25 26  1  0
 26 27  1  0
 27 28  1  0
 28 29  1  0
  8 30  1  0
 30 31  2  0
 31 32  1  0
 31  5  1  0
 17 13  1  0
 29 22  1  0
  4 33  1  0
  4 34  1  0
  6 35  1  0
  7 36  1  0
  9 37  1  0
  9 38  1  0
 10 39  1  0
 13 40  1  6
 14 41  1  0
 14 42  1  0
 15 43  1  0
 15 44  1  0
 16 45  1  0
 16 46  1  0
 20 47  1  0
 20 48  1  0
 21 49  1  0
 22 50  1  0
 23 51  1  0
 23 52  1  0
 24 53  1  0
 24 54  1  0
 25 55  1  0
 25 56  1  0
 26 57  1  0
 26 58  1  0
 27 59  1  0
 27 60  1  0
 28 61  1  0
 28 62  1  0
 29 63  1  0
 29 64  1  0
 30 65  1  0
 32 66  1  0
 32 67  1  0
 32 68  1  0
M  END
>  <meeko>  (2) 
{"is_sidechain": [false], "free_energy": -4.723, "intermolecular_energy": -8.398, "internal_energy": -2.248}

$$$$
13U_modified_methyl
     RDKit          3D

 68 70  0  0  0  0  0  0  0  0999 V2000
   17.7280  -15.9980    7.7070 H   0  0  0  0  0  0  0  0  0  0  0  0
   17.4800  -15.0520    8.0140 N   0  0  0  0  0  0  0  0  0  0  0  0
   17.6870  -14.9190    9.2850 C   0  0  0  0  0  0  0  0  0  0  0  0
   17.4840  -16.0060   10.0790 N   0  0  0  0  0  0  0  0  0  0  0  0
   18.1480  -13.6340    9.8720 C   0  0  0  0  0  0  0  0  0  0  0  0
   17.1930  -12.8410   10.5210 C   0  0  0  0  0  0  0  0  0  0  0  0
   17.5620  -11.6200   11.0840 C   0  0  0  0  0  0  0  0  0  0  0  0
   18.8850  -11.1710   10.9950 C   0  0  0  0  0  0  0  0  0  0  0  0
   19.2940   -9.8760   11.6470 C   0  0  0  0  0  0  0  0  0  0  0  0
   18.3470   -8.8360   11.3230 N   0  0  0  0  0  0  0  0  0  0  0  0
   18.1420   -7.7900   12.1990 C   0  0  0  0  0  0  0  0  0  0  0  0
   18.8330   -7.6050   13.1990 O   0  0  0  0  0  0  0  0  0  0  0  0
   16.9970   -6.8460   11.7810 C   0  0  2  0  0  0  0  0  0  0  0  0
   17.5770   -5.6120   11.0810 C   0  0  0  0  0  0  0  0  0  0  0  0
   16.7670   -4.4490   11.6420 C   0  0  0  0  0  0  0  0  0  0  0  0
   16.4750   -4.8830   13.0690 C   0  0  0  0  0  0  0  0  0  0  0  0
   16.3070   -6.3190   12.9550 N   0  0  0  0  0  0  0  0  0  0  0  0
   15.5550   -7.1520   13.7540 C   0  0  0  0  0  0  0  0  0  0  0  0
   14.8510   -8.0400   13.2620 O   0  0  0  0  0  0  0  0  0  0  0  0
   15.6880   -6.9570   15.2760 C   0  0  0  0  0  0  0  0  0  0  0  0
   16.8110   -7.7650   15.7920 N   0  0  0  0  0  0  0  0  0  0  0  0
   16.4530   -8.5920   16.9610 C   0  0  0  0  0  0  0  0  0  0  0  0
   16.9720  -10.0260   16.7200 C   0  0  0  0  0  0  0  0  0  0  0  0
   17.2900  -10.3520   15.2550 C   0  0  0  0  0  0  0  0  0  0  0  0
   16.1560  -10.9340   14.3680 C   0  0  0  0  0  0  0  0  0  0  0  0
   14.9320  -11.4420   15.1300 C   0  0  0  0  0  0  0  0  0  0  0  0
   13.9610  -10.3610   15.6020 C   0  0  0  0  0  0  0  0  0  0  0  0
   14.1310   -9.8280   17.0210 C   0  0  0  0  0  0  0  0  0  0  0  0
   14.9250   -8.5300   17.1630 C   0  0  0  0  0  0  0  0  0  0  0  0
   19.8390  -11.9760   10.3500 C   0  0  0  0  0  0  0  0  0  0  0  0
   19.4880  -13.2180    9.7920 C   0  0  0  0  0  0  0  0  0  0  0  0
   20.5530  -14.0520    9.1340 C   0  0  0  0  0  0  0  0  0  0  0  0
   17.4130  -16.8570    9.5310 H   0  0  0  0  0  0  0  0  0  0  0  0
   18.1040  -16.0960   10.8750 H   0  0  0  0  0  0  0  0  0  0  0  0
   16.1494  -13.1824   10.5866 H   0  0  0  0  0  0  0  0  0  0  0  0
   16.8096  -11.0062   11.6009 H   0  0  0  0  0  0  0  0  0  0  0  0
   19.3255  -10.0122   12.7381 H   0  0  0  0  0  0  0  0  0  0  0  0
   20.2882   -9.5852   11.2769 H   0  0  0  0  0  0  0  0  0  0  0  0
   17.5500   -9.1150   10.7620 H   0  0  0  0  0  0  0  0  0  0  0  0
   16.3198   -7.4242   11.1352 H   0  0  0  0  0  0  0  0  0  0  0  0
   18.6446   -5.4944   11.3185 H   0  0  0  0  0  0  0  0  0  0  0  0
   17.5131   -5.6802    9.9850 H   0  0  0  0  0  0  0  0  0  0  0  0
   17.3515   -3.5173   11.6252 H   0  0  0  0  0  0  0  0  0  0  0  0
   15.8569   -4.2383   11.0612 H   0  0  0  0  0  0  0  0  0  0  0  0
   17.3149   -4.6365   13.7352 H   0  0  0  0  0  0  0  0  0  0  0  0
   15.5965   -4.3804   13.4998 H   0  0  0  0  0  0  0  0  0  0  0  0
   15.8739   -5.8946   15.4924 H   0  0  0  0  0  0  0  0  0  0  0  0
   14.7566   -7.2795   15.7643 H   0  0  0  0  0  0  0  0  0  0  0  0
   17.5670   -7.1160   16.0280 H   0  0  0  0  0  0  0  0  0  0  0  0
   16.9190   -8.2205   17.8856 H   0  0  0  0  0  0  0  0  0  0  0  0
   17.8910  -10.1619   17.3091 H   0  0  0  0  0  0  0  0  0  0  0  0
   16.1617  -10.7058   17.0220 H   0  0  0  0  0  0  0  0  0  0  0  0
   17.6292   -9.4196   14.7800 H   0  0  0  0  0  0  0  0  0  0  0  0
   18.0329  -11.1612   15.3118 H   0  0  0  0  0  0  0  0  0  0  0  0
   15.8241  -10.1444   13.6778 H   0  0  0  0  0  0  0  0  0  0  0  0
   16.5847  -11.8097   13.8587 H   0  0  0  0  0  0  0  0  0  0  0  0
   14.3815  -12.1283   14.4697 H   0  0  0  0  0  0  0  0  0  0  0  0
   15.3188  -11.9219   16.0411 H   0  0  0  0  0  0  0  0  0  0  0  0
   14.0607   -9.5071   14.9158 H   0  0  0  0  0  0  0  0  0  0  0  0
   12.9768  -10.8523   15.6048 H   0  0  0  0  0  0  0  0  0  0  0  0
   13.1275   -9.6549   17.4371 H   0  0  0  0  0  0  0  0  0  0  0  0
   14.7165  -10.5914   17.5543 H   0  0  0  0  0  0  0  0  0  0  0  0
   14.5256   -7.8194   16.4244 H   0  0  0  0  0  0  0  0  0  0  0  0
   14.7979   -8.2432   18.2173 H   0  0  0  0  0  0  0  0  0  0  0  0
   20.8802  -11.6280   10.2802 H   0  0  0  0  0  0  0  0  0  0  0  0
   21.1698  -14.5350    9.9062 H   0  0  0  0  0  0  0  0  0  0  0  0
   20.0803  -14.8226    8.5073 H   0  0  0  0  0  0  0  0  0  0  0  0
   21.1878  -13.4083    8.5073 H   0  0  0  0  0  0  0  0  0  0  0  0
  1  2  1  0
  2  3  2  0
  3  4  1  0
  3  5  1  0
  5  6  2  0
  6  7  1  0
  7  8  2  0
  8  9  1  0
  9 10  1  0
 10 11  1  0
 11 12  2  0
 11 13  1  0
 13 14  1  0
 14 15  1  0
 15 16  1  0
 16 17  1  0
 17 18  1  0
 18 19  2  0
 18 20  1  0
 20 21  1  0
 21 22  1  0
 22 23  1  0
 23 24  1  0
 24 25  1  0
 25 26  1  0
 26 27  1  0
 27 28  1  0
 28 29  1  0
  8 30  1  0
 30 31  2  0
 31 32  1  0
 31  5  1  0
 17 13  1  0
 29 22  1  0
  4 33  1  0
  4 34  1  0
  6 35  1  0
  7 36  1  0
  9 37  1  0
  9 38  1  0
 10 39  1  0
 13 40  1  6
 14 41  1  0
 14 42  1  0
 15 43  1  0
 15 44  1  0
 16 45  1  0
 16 46  1  0
 20 47  1  0
 20 48  1  0
 21 49  1  0
 22 50  1  0
 23 51  1  0
 23 52  1  0
 24 53  1  0
 24 54  1  0
 25 55  1  0
 25 56  1  0
 26 57  1  0
 26 58  1  0
 27 59  1  0
 27 60  1  0
 28 61  1  0
 28 62  1  0
 29 63  1  0
 29 64  1  0
 30 65  1  0
 32 66  1  0
 32 67  1  0
 32 68  1  0
M  END
>  <meeko>  (3) 
{"is_sidechain": [false], "free_energy": -4.547, "intermolecular_energy": -8.892, "internal_energy": -1.419}

$$$$
13U_modified_methyl
     RDKit          3D

 68 70  0  0  0  0  0  0  0  0999 V2000
   18.7980  -12.9980    8.9130 H   0  0  0  0  0  0  0  0  0  0  0  0
   18.5460  -13.5170    9.7600 N   0  0  0  0  0  0  0  0  0  0  0  0
   17.3700  -13.1670   10.1730 C   0  0  0  0  0  0  0  0  0  0  0  0
   16.2950  -13.5530    9.4330 N   0  0  0  0  0  0  0  0  0  0  0  0
   17.1820  -12.3860   11.4230 C   0  0  0  0  0  0  0  0  0  0  0  0
   16.4100  -12.9660   12.4380 C   0  0  0  0  0  0  0  0  0  0  0  0
   16.1890  -12.2780   13.6300 C   0  0  0  0  0  0  0  0  0  0  0  0
   16.7250  -10.9970   13.8180 C   0  0  0  0  0  0  0  0  0  0  0  0
   16.5280  -10.2750   15.1250 C   0  0  0  0  0  0  0  0  0  0  0  0
   17.3620   -9.0980   15.1730 N   0  0  0  0  0  0  0  0  0  0  0  0
   16.8740   -7.9270   15.7150 C   0  0  0  0  0  0  0  0  0  0  0  0
   15.7970   -7.8550   16.3030 O   0  0  0  0  0  0  0  0  0  0  0  0
   17.8290   -6.7260   15.5560 C   0  0  2  0  0  0  0  0  0  0  0  0
   18.8890   -6.7630   16.6630 C   0  0  0  0  0  0  0  0  0  0  0  0
   19.0120   -5.3110   17.1100 C   0  0  0  0  0  0  0  0  0  0  0  0
   17.6020   -4.7710   16.9390 C   0  0  0  0  0  0  0  0  0  0  0  0
   17.1160   -5.4690   15.7640 N   0  0  0  0  0  0  0  0  0  0  0  0
   16.1660   -5.0480   14.8600 C   0  0  0  0  0  0  0  0  0  0  0  0
   15.2900   -4.2410   15.1870 O   0  0  0  0  0  0  0  0  0  0  0  0
   16.2920   -5.5860   13.4220 C   0  0  0  0  0  0  0  0  0  0  0  0
   16.8450   -4.5400   12.5390 N   0  0  0  0  0  0  0  0  0  0  0  0
   16.7090   -4.8500   11.1030 C   0  0  0  0  0  0  0  0  0  0  0  0
   17.9970   -5.5600   10.6340 C   0  0  0  0  0  0  0  0  0  0  0  0
   19.0740   -4.6230   10.0710 C   0  0  0  0  0  0  0  0  0  0  0  0
   19.0860   -4.3770    8.5510 C   0  0  0  0  0  0  0  0  0  0  0  0
   18.2430   -3.1890    8.0900 C   0  0  0  0  0  0  0  0  0  0  0  0
   16.7830   -3.5090    7.7700 C   0  0  0  0  0  0  0  0  0  0  0  0
   15.8170   -3.6450    8.9420 C   0  0  0  0  0  0  0  0  0  0  0  0
   16.4300   -3.5410   10.3370 C   0  0  0  0  0  0  0  0  0  0  0  0
   17.5050  -10.4260   12.7990 C   0  0  0  0  0  0  0  0  0  0  0  0
   17.7530  -11.1130   11.5980 C   0  0  0  0  0  0  0  0  0  0  0  0
   18.6150  -10.4660   10.5480 C   0  0  0  0  0  0  0  0  0  0  0  0
   16.5460  -14.2710    8.7610 H   0  0  0  0  0  0  0  0  0  0  0  0
   15.4530  -13.7720    9.9530 H   0  0  0  0  0  0  0  0  0  0  0  0
   15.9771  -13.9669   12.2939 H   0  0  0  0  0  0  0  0  0  0  0  0
   15.5907  -12.7431   14.4273 H   0  0  0  0  0  0  0  0  0  0  0  0
   15.4733   -9.9775   15.2208 H   0  0  0  0  0  0  0  0  0  0  0  0
   16.8047  -10.9458   15.9517 H   0  0  0  0  0  0  0  0  0  0  0  0
   18.0410   -9.0000   14.4270 H   0  0  0  0  0  0  0  0  0  0  0  0
   18.2628   -6.7868   14.5470 H   0  0  0  0  0  0  0  0  0  0  0  0
   18.5608   -7.4015   17.4964 H   0  0  0  0  0  0  0  0  0  0  0  0
   19.8461   -7.1802   16.3167 H   0  0  0  0  0  0  0  0  0  0  0  0
   19.3332   -5.2480   18.1602 H   0  0  0  0  0  0  0  0  0  0  0  0
   19.7614   -4.7463   16.5360 H   0  0  0  0  0  0  0  0  0  0  0  0
   16.9826   -5.0016   17.8183 H   0  0  0  0  0  0  0  0  0  0  0  0
   17.5708   -3.6766   16.8324 H   0  0  0  0  0  0  0  0  0  0  0  0
   16.9616   -6.4587   13.4168 H   0  0  0  0  0  0  0  0  0  0  0  0
   15.2963   -5.8780   13.0568 H   0  0  0  0  0  0  0  0  0  0  0  0
   17.8300   -4.4220   12.7910 H   0  0  0  0  0  0  0  0  0  0  0  0
   15.8651   -5.5280   10.9075 H   0  0  0  0  0  0  0  0  0  0  0  0
   18.4248   -6.0975   11.4931 H   0  0  0  0  0  0  0  0  0  0  0  0
   17.7029   -6.2274    9.8106 H   0  0  0  0  0  0  0  0  0  0  0  0
   18.9481   -3.6461   10.5608 H   0  0  0  0  0  0  0  0  0  0  0  0
   20.0245   -5.1370   10.2767 H   0  0  0  0  0  0  0  0  0  0  0  0
   20.1264   -4.1999    8.2407 H   0  0  0  0  0  0  0  0  0  0  0  0
   18.6426   -5.2709    8.0880 H   0  0  0  0  0  0  0  0  0  0  0  0
   18.2580   -2.4318    8.8877 H   0  0  0  0  0  0  0  0  0  0  0  0
   18.6926   -2.8447    7.1470 H   0  0  0  0  0  0  0  0  0  0  0  0
   16.4040   -2.7044    7.1227 H   0  0  0  0  0  0  0  0  0  0  0  0
   16.8099   -4.5090    7.3126 H   0  0  0  0  0  0  0  0  0  0  0  0
   15.0611   -2.8515    8.8476 H   0  0  0  0  0  0  0  0  0  0  0  0
   15.4131   -4.6659    8.8735 H   0  0  0  0  0  0  0  0  0  0  0  0
   17.3884   -3.0109   10.2348 H   0  0  0  0  0  0  0  0  0  0  0  0
   15.6636   -3.0287   10.9371 H   0  0  0  0  0  0  0  0  0  0  0  0
   17.9300   -9.4218   12.9436 H   0  0  0  0  0  0  0  0  0  0  0  0
   19.4038   -9.8739   11.0350 H   0  0  0  0  0  0  0  0  0  0  0  0
   19.0748  -11.2439    9.9207 H   0  0  0  0  0  0  0  0  0  0  0  0
   17.9965   -9.8072    9.9207 H   0  0  0  0  0  0  0  0  0  0  0  0
  1  2  1  0
  2  3  2  0
  3  4  1  0
  3  5  1  0
  5  6  2  0
  6  7  1  0
  7  8  2  0
  8  9  1  0
  9 10  1  0
 10 11  1  0
 11 12  2  0
 11 13  1  0
 13 14  1  0
 14 15  1  0
 15 16  1  0
 16 17  1  0
 17 18  1  0
 18 19  2  0
 18 20  1  0
 20 21  1  0
 21 22  1  0
 22 23  1  0
 23 24  1  0
 24 25  1  0
 25 26  1  0
 26 27  1  0
 27 28  1  0
 28 29  1  0
  8 30  1  0
 30 31  2  0
 31 32  1  0
 31  5  1  0
 17 13  1  0
 29 22  1  0
  4 33  1  0
  4 34  1  0
  6 35  1  0
  7 36  1  0
  9 37  1  0
  9 38  1  0
 10 39  1  0
 13 40  1  6
 14 41  1  0
 14 42  1  0
 15 43  1  0
 15 44  1  0
 16 45  1  0
 16 46  1  0
 20 47  1  0
 20 48  1  0
 21 49  1  0
 22 50  1  0
 23 51  1  0
 23 52  1  0
 24 53  1  0
 24 54  1  0
 25 55  1  0
 25 56  1  0
 26 57  1  0
 26 58  1  0
 27 59  1  0
 27 60  1  0
 28 61  1  0
 28 62  1  0
 29 63  1  0
 29 64  1  0
 30 65  1  0
 32 66  1  0
 32 67  1  0
 32 68  1  0
M  END
>  <meeko>  (4) 
{"is_sidechain": [false], "free_energy": -4.127, "intermolecular_energy": -9.272, "internal_energy": -0.239}

$$$$
13U_modified_methyl
     RDKit          3D

 68 70  0  0  0  0  0  0  0  0999 V2000
   17.9910   -6.7070   14.7870 H   0  0  0  0  0  0  0  0  0  0  0  0
   18.1690   -7.2620   15.6300 N   0  0  0  0  0  0  0  0  0  0  0  0
   17.1290   -7.9720   15.9340 C   0  0  0  0  0  0  0  0  0  0  0  0
   16.2220   -7.4340   16.7950 N   0  0  0  0  0  0  0  0  0  0  0  0
   16.9090   -9.3230   15.3560 C   0  0  0  0  0  0  0  0  0  0  0  0
   17.8510  -10.3160   15.6570 C   0  0  0  0  0  0  0  0  0  0  0  0
   17.7040  -11.6010   15.1370 C   0  0  0  0  0  0  0  0  0  0  0  0
   16.6220  -11.9070   14.3010 C   0  0  0  0  0  0  0  0  0  0  0  0
   16.4360  -13.3080   13.7810 C   0  0  0  0  0  0  0  0  0  0  0  0
   16.4320  -13.3060   12.3380 N   0  0  0  0  0  0  0  0  0  0  0  0
   17.6030  -13.5280   11.6420 C   0  0  0  0  0  0  0  0  0  0  0  0
   18.6500  -13.8760   12.1820 O   0  0  0  0  0  0  0  0  0  0  0  0
   17.4610  -13.3460   10.1170 C   0  0  2  0  0  0  0  0  0  0  0  0
   16.0560  -13.7750    9.6760 C   0  0  0  0  0  0  0  0  0  0  0  0
   16.2910  -14.5540    8.3880 C   0  0  0  0  0  0  0  0  0  0  0  0
   17.6350  -15.2230    8.6240 C   0  0  0  0  0  0  0  0  0  0  0  0
   18.3650  -14.2430    9.4040 N   0  0  0  0  0  0  0  0  0  0  0  0
   19.7290  -14.0560    9.4700 C   0  0  0  0  0  0  0  0  0  0  0  0
   20.5010  -15.0180    9.5280 O   0  0  0  0  0  0  0  0  0  0  0  0
   20.2320  -12.6010    9.4060 C   0  0  0  0  0  0  0  0  0  0  0  0
   20.9030  -12.2440   10.6720 N   0  0  0  0  0  0  0  0  0  0  0  0
   20.5870  -10.8810   11.1400 C   0  0  0  0  0  0  0  0  0  0  0  0
   20.8410  -10.8180   12.6620 C   0  0  0  0  0  0  0  0  0  0  0  0
   21.4500   -9.4990   13.1530 C   0  0  0  0  0  0  0  0  0  0  0  0
   20.4720   -8.3470   13.4240 C   0  0  0  0  0  0  0  0  0  0  0  0
   19.8690   -7.7250   12.1650 C   0  0  0  0  0  0  0  0  0  0  0  0
   18.4890   -8.2530   11.7720 C   0  0  0  0  0  0  0  0  0  0  0  0
   18.2880   -9.7640   11.7620 C   0  0  0  0  0  0  0  0  0  0  0  0
   19.1300  -10.5500   10.7580 C   0  0  0  0  0  0  0  0  0  0  0  0
   15.6770  -10.9090   14.0120 C   0  0  0  0  0  0  0  0  0  0  0  0
   15.8000   -9.6120   14.5420 C   0  0  0  0  0  0  0  0  0  0  0  0
   14.7470   -8.5870   14.2200 C   0  0  0  0  0  0  0  0  0  0  0  0
   16.3700   -6.4370   16.9140 H   0  0  0  0  0  0  0  0  0  0  0  0
   15.2540   -7.6760   16.6280 H   0  0  0  0  0  0  0  0  0  0  0  0
   18.7082  -10.0809   16.3050 H   0  0  0  0  0  0  0  0  0  0  0  0
   18.4414  -12.3789   15.3843 H   0  0  0  0  0  0  0  0  0  0  0  0
   17.2595  -13.9420   14.1415 H   0  0  0  0  0  0  0  0  0  0  0  0
   15.4744  -13.7011   14.1427 H   0  0  0  0  0  0  0  0  0  0  0  0
   15.7520  -12.6990   11.8930 H   0  0  0  0  0  0  0  0  0  0  0  0
   17.6744  -12.2900    9.8951 H   0  0  0  0  0  0  0  0  0  0  0  0
   15.5858  -14.4138   10.4381 H   0  0  0  0  0  0  0  0  0  0  0  0
   15.3791  -12.9196    9.5339 H   0  0  0  0  0  0  0  0  0  0  0  0
   15.5005  -15.3026    8.2305 H   0  0  0  0  0  0  0  0  0  0  0  0
   16.2790  -13.9168    7.4914 H   0  0  0  0  0  0  0  0  0  0  0  0
   17.5145  -16.1618    9.1845 H   0  0  0  0  0  0  0  0  0  0  0  0
   18.1480  -15.4979    7.6906 H   0  0  0  0  0  0  0  0  0  0  0  0
   20.9443  -12.4978    8.5742 H   0  0  0  0  0  0  0  0  0  0  0  0
   19.3756  -11.9288    9.2485 H   0  0  0  0  0  0  0  0  0  0  0  0
   21.9100  -12.3500   10.5210 H   0  0  0  0  0  0  0  0  0  0  0  0
   21.2279  -10.1243   10.6638 H   0  0  0  0  0  0  0  0  0  0  0  0
   19.8800  -10.9649   13.1767 H   0  0  0  0  0  0  0  0  0  0  0  0
   21.5761  -11.6044   12.8884 H   0  0  0  0  0  0  0  0  0  0  0  0
   21.9867   -9.7081   14.0901 H   0  0  0  0  0  0  0  0  0  0  0  0
   22.0869   -9.1494   12.3271 H   0  0  0  0  0  0  0  0  0  0  0  0
   19.6502   -8.7318   14.0458 H   0  0  0  0  0  0  0  0  0  0  0  0
   21.0494   -7.5540   13.9218 H   0  0  0  0  0  0  0  0  0  0  0  0
   19.7839   -6.6406   12.3290 H   0  0  0  0  0  0  0  0  0  0  0  0
   20.5442   -7.9943   11.3394 H   0  0  0  0  0  0  0  0  0  0  0  0
   17.7608   -7.8288   12.4790 H   0  0  0  0  0  0  0  0  0  0  0  0
   18.3613   -7.9473   10.7231 H   0  0  0  0  0  0  0  0  0  0  0  0
   18.5262  -10.1409   12.7676 H   0  0  0  0  0  0  0  0  0  0  0  0
   17.2431   -9.9199   11.4557 H   0  0  0  0  0  0  0  0  0  0  0  0
   18.6147  -11.5044   10.5746 H   0  0  0  0  0  0  0  0  0  0  0  0
   19.2180   -9.8814    9.8890 H   0  0  0  0  0  0  0  0  0  0  0  0
   14.8244  -11.1462   13.3587 H   0  0  0  0  0  0  0  0  0  0  0  0
   14.3313   -8.1823   15.1546 H   0  0  0  0  0  0  0  0  0  0  0  0
   15.1963   -7.7710   13.6350 H   0  0  0  0  0  0  0  0  0  0  0  0
   13.9434   -9.0582   13.6350 H   0  0  0  0  0  0  0  0  0  0  0  0
  1  2  1  0
  2  3  2  0
  3  4  1  0
  3  5  1  0
  5  6  2  0
  6  7  1  0
  7  8  2  0
  8  9  1  0
  9 10  1  0
 10 11  1  0
 11 12  2  0
 11 13  1  0
 13 14  1  0
 14 15  1  0
 15 16  1  0
 16 17  1  0
 17 18  1  0
 18 19  2  0
 18 20  1  0
 20 21  1  0
 21 22  1  0
 22 23  1  0
 23 24  1  0
 24 25  1  0
 25 26  1  0
 26 27  1  0
 27 28  1  0
 28 29  1  0
  8 30  1  0
 30 31  2  0
 31 32  1  0
 31  5  1  0
 17 13  1  0
 29 22  1  0
  4 33  1  0
  4 34  1  0
  6 35  1  0
  7 36  1  0
  9 37  1  0
  9 38  1  0
 10 39  1  0
 13 40  1  1
 14 41  1  0
 14 42  1  0
 15 43  1  0
 15 44  1  0
 16 45  1  0
 16 46  1  0
 20 47  1  0
 20 48  1  0
 21 49  1  0
 22 50  1  0
 23 51  1  0
 23 52  1  0
 24 53  1  0
 24 54  1  0
 25 55  1  0
 25 56  1  0
 26 57  1  0
 26 58  1  0
 27 59  1  0
 27 60  1  0
 28 61  1  0
 28 62  1  0
 29 63  1  0
 29 64  1  0
 30 65  1  0
 32 66  1  0
 32 67  1  0
 32 68  1  0
M  END
>  <meeko>  (5) 
{"is_sidechain": [false], "free_energy": -4.123, "intermolecular_energy": -7.874, "internal_energy": -1.628}

$$$$
