13U
     RDKit          3D

 64 66  0  0  1  0  0  0  0  0999 V2000
   -0.7777    0.6117   -1.4257 C   0  0  0  0  0  0  0  0  0  0  0  0
    0.3709    0.1963   -1.6081 O   0  0  0  0  0  0  0  0  0  0  0  0
   -1.9958   -0.1931   -1.9038 C   0  0  0  0  0  0  0  0  0  0  0  0
   -2.7319   -0.7174   -0.7451 N   0  0  0  0  0  0  0  0  0  0  0  0
   -4.0043   -1.3581   -1.1101 C   0  0  0  0  0  0  0  0  0  0  0  0
   -4.3786   -2.3569    0.0041 C   0  0  0  0  0  0  0  0  0  0  0  0
   -4.8792   -1.7696    1.3253 C   0  0  0  0  0  0  0  0  0  0  0  0
   -6.4060   -1.6642    1.4435 C   0  0  0  0  0  0  0  0  0  0  0  0
   -7.0011   -0.3544    0.9335 C   0  0  0  0  0  0  0  0  0  0  0  0
   -7.4745   -0.3569   -0.5223 C   0  0  0  0  0  0  0  0  0  0  0  0
   -6.4891   -0.8614   -1.5775 C   0  0  0  0  0  0  0  0  0  0  0  0
   -5.0753   -0.2963   -1.4264 C   0  0  0  0  0  0  0  0  0  0  0  0
   -1.0140    1.8018   -0.7585 N   0  0  0  0  0  0  0  0  0  0  0  0
    0.0997    2.6328   -0.2692 C   0  0  2  0  0  0  0  0  0  0  0  0
    0.7995    2.0030    0.9569 C   0  0  0  0  0  0  0  0  0  0  0  0
    0.6331    2.3919    2.1073 O   0  0  0  0  0  0  0  0  0  0  0  0
   -0.5531    3.9782    0.0787 C   0  0  0  0  0  0  0  0  0  0  0  0
   -1.8064    4.0079   -0.7820 C   0  0  0  0  0  0  0  0  0  0  0  0
   -2.2583    2.5567   -0.7628 C   0  0  0  0  0  0  0  0  0  0  0  0
    1.6351    0.9568    0.6382 N   0  0  0  0  0  0  0  0  0  0  0  0
    2.2690    0.1422    1.6434 C   0  0  0  0  0  0  0  0  0  0  0  0
    3.6380   -0.2760    1.1969 C   0  0  0  0  0  0  0  0  0  0  0  0
    3.8555   -1.5009    0.5733 C   0  0  0  0  0  0  0  0  0  0  0  0
    5.0608   -1.9291    0.1322 N   0  0  0  0  0  0  0  0  0  0  0  0
    6.1021   -1.0701    0.3147 C   0  0  0  0  0  0  0  0  0  0  0  0
    7.4280   -1.5704   -0.1833 C   0  0  0  0  0  0  0  0  0  0  0  0
    8.5233   -0.9269    0.0721 N   0  0  0  0  0  0  0  0  0  0  0  0
    7.4574   -2.7352   -0.9037 N   0  0  0  0  0  0  0  0  0  0  0  0
    5.9927    0.1739    0.9143 C   0  0  0  0  0  0  0  0  0  0  0  0
    4.7365    0.5745    1.3568 C   0  0  0  0  0  0  0  0  0  0  0  0
    9.3016   -1.4107   -0.3829 H   0  0  0  0  0  0  0  0  0  0  0  0
   -1.6245   -1.0277   -2.5106 H   0  0  0  0  0  0  0  0  0  0  0  0
   -2.6031    0.4403   -2.5567 H   0  0  0  0  0  0  0  0  0  0  0  0
   -2.8841    0.0169   -0.0569 H   0  0  0  0  0  0  0  0  0  0  0  0
   -3.8448   -1.9628   -2.0140 H   0  0  0  0  0  0  0  0  0  0  0  0
   -3.4836   -2.9577    0.2225 H   0  0  0  0  0  0  0  0  0  0  0  0
   -5.1022   -3.0891   -0.3724 H   0  0  0  0  0  0  0  0  0  0  0  0
   -4.3971   -0.8140    1.5560 H   0  0  0  0  0  0  0  0  0  0  0  0
   -4.5558   -2.4627    2.1127 H   0  0  0  0  0  0  0  0  0  0  0  0
   -6.6382   -1.7162    2.5157 H   0  0  0  0  0  0  0  0  0  0  0  0
   -6.9071   -2.5252    0.9868 H   0  0  0  0  0  0  0  0  0  0  0  0
   -6.3075    0.4783    1.1137 H   0  0  0  0  0  0  0  0  0  0  0  0
   -7.8880   -0.1265    1.5475 H   0  0  0  0  0  0  0  0  0  0  0  0
   -8.3922   -0.9562   -0.6007 H   0  0  0  0  0  0  0  0  0  0  0  0
   -7.7668    0.6712   -0.7775 H   0  0  0  0  0  0  0  0  0  0  0  0
   -6.4928   -1.9551   -1.5949 H   0  0  0  0  0  0  0  0  0  0  0  0
   -6.8816   -0.5639   -2.5601 H   0  0  0  0  0  0  0  0  0  0  0  0
   -4.8101    0.1811   -2.3802 H   0  0  0  0  0  0  0  0  0  0  0  0
   -5.0513    0.5167   -0.6889 H   0  0  0  0  0  0  0  0  0  0  0  0
    0.8271    2.7582   -1.0822 H   0  0  0  0  0  0  0  0  0  0  0  0
   -0.8425    4.0375    1.1325 H   0  0  0  0  0  0  0  0  0  0  0  0
    0.1153    4.8211   -0.1267 H   0  0  0  0  0  0  0  0  0  0  0  0
   -1.5491    4.3101   -1.8047 H   0  0  0  0  0  0  0  0  0  0  0  0
   -2.5691    4.6907   -0.4008 H   0  0  0  0  0  0  0  0  0  0  0  0
   -2.7919    2.3252    0.1659 H   0  0  0  0  0  0  0  0  0  0  0  0
   -2.8991    2.3209   -1.6138 H   0  0  0  0  0  0  0  0  0  0  0  0
    1.5131    0.5493   -0.2930 H   0  0  0  0  0  0  0  0  0  0  0  0
    1.6288   -0.7304    1.8120 H   0  0  0  0  0  0  0  0  0  0  0  0
    2.3315    0.6778    2.5959 H   0  0  0  0  0  0  0  0  0  0  0  0
    3.0351   -2.1935    0.4001 H   0  0  0  0  0  0  0  0  0  0  0  0
    8.2519   -3.3338   -0.7297 H   0  0  0  0  0  0  0  0  0  0  0  0
    6.5746   -3.2426   -0.8306 H   0  0  0  0  0  0  0  0  0  0  0  0
    6.8601    0.8141    1.0275 H   0  0  0  0  0  0  0  0  0  0  0  0
    4.6150    1.5511    1.8200 H   0  0  0  0  0  0  0  0  0  0  0  0
  1  2  2  0
  1  3  1  0
  3  4  1  0
  4  5  1  0
  5  6  1  0
  5 12  1  0
  6  7  1  0
  7  8  1  0
  8  9  1  0
  9 10  1  0
 10 11  1  0
 11 12  1  0
 13  1  1  0
 14 17  1  0
 14 13  1  0
 15 20  1  0
 15 14  1  0
 16 15  2  0
 17 18  1  0
 18 19  1  0
 19 13  1  0
 20 21  1  0
 21 22  1  0
 22 30  1  0
 22 23  2  0
 24 23  1  0
 25 26  1  0
 25 24  2  0
 26 27  2  0
 26 28  1  0
 27 31  1  0
 29 25  1  0
 30 29  2  0
  3 32  1  0
  3 33  1  0
  4 34  1  0
  5 35  1  0
  6 36  1  0
  6 37  1  0
  7 38  1  0
  7 39  1  0
  8 40  1  0
  8 41  1  0
  9 42  1  0
  9 43  1  0
 10 44  1  0
 10 45  1  0
 11 46  1  0
 11 47  1  0
 12 48  1  0
 12 49  1  0
 14 50  1  6
 17 51  1  0
 17 52  1  0
 18 53  1  0
 18 54  1  0
 19 55  1  0
 19 56  1  0
 20 57  1  0
 21 58  1  0
 21 59  1  0
 23 60  1  0
 28 61  1  0
 28 62  1  0
 29 63  1  0
 30 64  1  0
M  END
