IMA
     RDKit          3D

 77 81  0  0  0  0  0  0  0  0999 V2000
   -3.2250   -1.7330   -0.3240 C   0  0  0  0  0  0  0  0  0  0  0  0
   -3.7750   -0.5560   -0.8280 C   0  0  0  0  0  0  0  0  0  0  0  0
   -2.9660    0.4990   -1.1830 C   0  0  0  0  0  0  0  0  0  0  0  0
   -1.5860    0.3970   -1.0420 C   0  0  0  0  0  0  0  0  0  0  0  0
   -1.0240   -0.7900   -0.5330 C   0  0  0  0  0  0  0  0  0  0  0  0
   -1.8600   -1.8560   -0.1750 C   0  0  0  0  0  0  0  0  0  0  0  0
    0.3790   -0.6040   -0.5030 C   0  0  0  0  0  0  0  0  0  0  0  0
   -0.5480    1.2640   -1.3000 N   0  0  0  0  0  0  0  0  0  0  0  0
    0.6420    0.6430   -0.9740 C   0  0  0  0  0  0  0  0  0  0  0  0
   -0.6830    2.6220   -1.8330 C   0  0  0  0  0  0  0  0  0  0  0  0
    1.9790    1.2390   -1.1090 C   0  0  0  0  0  0  0  0  0  0  0  0
    3.0700    0.5400   -0.7350 N   0  0  0  0  0  0  0  0  0  0  0  0
    4.4080    1.0840   -0.9800 C   0  0  0  0  0  0  0  0  0  0  0  0
    5.4440    0.1150   -0.4710 C   0  0  0  0  0  0  0  0  0  0  0  0
    2.1020    2.3630   -1.5590 O   0  0  0  0  0  0  0  0  0  0  0  0
   -0.9440    3.5830   -0.7020 C   0  0  0  0  0  0  0  0  0  0  0  0
   -2.4790    4.7710    0.7110 C   0  0  0  0  0  0  0  0  0  0  0  0
   -2.2400    3.8860   -0.3410 C   0  0  0  0  0  0  0  0  0  0  0  0
    0.1180    4.1630   -0.0310 C   0  0  0  0  0  0  0  0  0  0  0  0
   -0.1130    5.0460    1.0090 C   0  0  0  0  0  0  0  0  0  0  0  0
   -1.4050    5.3520    1.3830 C   0  0  0  0  0  0  0  0  0  0  0  0
   -3.8680    5.0950    1.1080 C   0  0  0  0  0  0  0  0  0  0  0  0
   -4.1020    5.9730    2.1440 N   0  0  0  0  0  0  0  0  0  0  0  0
   -4.8700    4.5500    0.4780 N   0  0  0  0  0  0  0  0  0  0  0  0
    6.8930   -1.7540   -0.8420 C   0  0  0  0  0  0  0  0  0  0  0  0
    7.3470   -1.6610    0.4610 C   0  0  0  0  0  0  0  0  0  0  0  0
    6.8440   -0.6830    1.2990 C   0  0  0  0  0  0  0  0  0  0  0  0
    5.8960    0.2080    0.8320 C   0  0  0  0  0  0  0  0  0  0  0  0
    5.9420   -0.8660   -1.3080 C   0  0  0  0  0  0  0  0  0  0  0  0
    8.3080   -2.5590    0.9320 N   0  0  0  0  0  0  0  0  0  0  0  0
    9.5280   -2.4400    0.1230 C   0  0  0  0  0  0  0  0  0  0  0  0
    7.7880   -3.9300    0.8340 C   0  0  0  0  0  0  0  0  0  0  0  0
    8.6190   -2.2530    2.3350 C   0  0  0  0  0  0  0  0  0  0  0  0
   -4.0390   -2.7660    0.0230 O   0  0  0  0  0  0  0  0  0  0  0  0
   -5.3780   -2.3430   -0.2420 C   0  0  0  0  0  0  0  0  0  0  0  0
   -6.3350   -3.4490    0.1220 C   0  0  0  0  0  0  0  0  0  0  0  0
   -6.8560   -3.5180    1.4010 C   0  0  0  0  0  0  0  0  0  0  0  0
   -7.7340   -4.5320    1.7350 C   0  0  0  0  0  0  0  0  0  0  0  0
   -8.0910   -5.4760    0.7910 C   0  0  0  0  0  0  0  0  0  0  0  0
   -7.5710   -5.4070   -0.4880 C   0  0  0  0  0  0  0  0  0  0  0  0
   -6.6960   -4.3900   -0.8230 C   0  0  0  0  0  0  0  0  0  0  0  0
   -4.8460   -0.4710   -0.9400 H   0  0  0  0  0  0  0  0  0  0  0  0
   -3.4030    1.4070   -1.5730 H   0  0  0  0  0  0  0  0  0  0  0  0
   -1.4370   -2.7700    0.2160 H   0  0  0  0  0  0  0  0  0  0  0  0
    1.1100   -1.3240   -0.1650 H   0  0  0  0  0  0  0  0  0  0  0  0
    0.2360    2.9050   -2.3460 H   0  0  0  0  0  0  0  0  0  0  0  0
   -1.5160    2.6550   -2.5370 H   0  0  0  0  0  0  0  0  0  0  0  0
    2.9680   -0.3230   -0.3050 H   0  0  0  0  0  0  0  0  0  0  0  0
    4.5140    2.0360   -0.4590 H   0  0  0  0  0  0  0  0  0  0  0  0
    4.5480    1.2380   -2.0500 H   0  0  0  0  0  0  0  0  0  0  0  0
   -3.0680    3.4330   -0.8650 H   0  0  0  0  0  0  0  0  0  0  0  0
    1.1310    3.9260   -0.3200 H   0  0  0  0  0  0  0  0  0  0  0  0
    0.7200    5.4960    1.5290 H   0  0  0  0  0  0  0  0  0  0  0  0
   -1.5840    6.0410    2.1950 H   0  0  0  0  0  0  0  0  0  0  0  0
   -3.3560    6.3790    2.6130 H   0  0  0  0  0  0  0  0  0  0  0  0
   -5.0120    6.1860    2.4040 H   0  0  0  0  0  0  0  0  0  0  0  0
   -5.7800    4.7630    0.7390 H   0  0  0  0  0  0  0  0  0  0  0  0
    7.2830   -2.5210   -1.4960 H   0  0  0  0  0  0  0  0  0  0  0  0
    7.1980   -0.6110    2.3170 H   0  0  0  0  0  0  0  0  0  0  0  0
    5.5070    0.9740    1.4860 H   0  0  0  0  0  0  0  0  0  0  0  0
    5.5890   -0.9380   -2.3260 H   0  0  0  0  0  0  0  0  0  0  0  0
    9.2980   -2.6680   -0.9180 H   0  0  0  0  0  0  0  0  0  0  0  0
    9.9140   -1.4230    0.1950 H   0  0  0  0  0  0  0  0  0  0  0  0
   10.2780   -3.1400    0.4900 H   0  0  0  0  0  0  0  0  0  0  0  0
    8.5380   -4.6300    1.2020 H   0  0  0  0  0  0  0  0  0  0  0  0
    6.8830   -4.0180    1.4350 H   0  0  0  0  0  0  0  0  0  0  0  0
    7.5570   -4.1570   -0.2060 H   0  0  0  0  0  0  0  0  0  0  0  0
    9.0050   -1.2360    2.4070 H   0  0  0  0  0  0  0  0  0  0  0  0
    7.7140   -2.3410    2.9350 H   0  0  0  0  0  0  0  0  0  0  0  0
    9.3690   -2.9530    2.7020 H   0  0  0  0  0  0  0  0  0  0  0  0
   -5.6030   -1.4570    0.3510 H   0  0  0  0  0  0  0  0  0  0  0  0
   -5.4820   -2.1080   -1.3020 H   0  0  0  0  0  0  0  0  0  0  0  0
   -6.5770   -2.7800    2.1380 H   0  0  0  0  0  0  0  0  0  0  0  0
   -8.1400   -4.5870    2.7350 H   0  0  0  0  0  0  0  0  0  0  0  0
   -8.7760   -6.2690    1.0530 H   0  0  0  0  0  0  0  0  0  0  0  0
   -7.8500   -6.1440   -1.2250 H   0  0  0  0  0  0  0  0  0  0  0  0
   -6.2900   -4.3350   -1.8220 H   0  0  0  0  0  0  0  0  0  0  0  0
  1  2  2  0
  1  6  1  0
  1 34  1  0
  2  3  1  0
  2 42  1  0
  3  4  2  0
  3 43  1  0
  4  5  1  0
  4  8  1  0
  5  6  2  0
  5  7  1  0
  6 44  1  0
  7  9  2  0
  7 45  1  0
  8  9  1  0
  8 10  1  0
  9 11  1  0
 10 16  1  0
 10 46  1  0
 10 47  1  0
 11 12  1  0
 11 15  2  0
 12 13  1  0
 12 48  1  0
 13 14  1  0
 13 49  1  0
 13 50  1  0
 14 28  1  0
 14 29  2  0
 16 18  1  0
 16 19  2  0
 17 18  2  0
 17 21  1  0
 17 22  1  0
 18 51  1  0
 19 20  1  0
 19 52  1  0
 20 21  2  0
 20 53  1  0
 21 54  1  0
 22 23  1  0
 22 24  2  0
 23 55  1  0
 23 56  1  0
 24 57  1  0
 25 26  2  0
 25 29  1  0
 25 58  1  0
 26 27  1  0
 26 30  1  0
 27 28  2  0
 27 59  1  0
 28 60  1  0
 29 61  1  0
 30 31  1  0
 30 32  1  0
 30 33  1  0
 31 62  1  0
 31 63  1  0
 31 64  1  0
 32 65  1  0
 32 66  1  0
 32 67  1  0
 33 68  1  0
 33 69  1  0
 33 70  1  0
 34 35  1  0
 35 36  1  0
 35 71  1  0
 35 72  1  0
 36 37  2  0
 36 41  1  0
 37 38  1  0
 37 73  1  0
 38 39  2  0
 38 74  1  0
 39 40  1  0
 39 75  1  0
 40 41  2  0
 40 76  1  0
 41 77  1  0
M  CHG  1  30   1
M  END
