IMA
     RDKit          3D

 78 82  0  0  0  0  0  0  0  0999 V2000
   -3.3029   -1.5091   -0.4646 C   0  0  0  0  0  0  0  0  0  0  0  0
   -3.8275   -0.2716   -0.8252 C   0  0  0  0  0  0  0  0  0  0  0  0
   -2.9870    0.8032   -1.1481 C   0  0  0  0  0  0  0  0  0  0  0  0
   -1.5968    0.6078   -1.0949 C   0  0  0  0  0  0  0  0  0  0  0  0
   -1.0536   -0.6226   -0.7416 C   0  0  0  0  0  0  0  0  0  0  0  0
   -1.9154   -1.6914   -0.4281 C   0  0  0  0  0  0  0  0  0  0  0  0
    0.3537   -0.4849   -0.7955 C   0  0  0  0  0  0  0  0  0  0  0  0
   -0.5371    1.4714   -1.3492 N   0  0  0  0  0  0  0  0  0  0  0  0
    0.6777    0.8211   -1.1442 C   0  0  0  0  0  0  0  0  0  0  0  0
   -0.7297    2.8583   -1.7899 C   0  0  0  0  0  0  0  0  0  0  0  0
    2.0005    1.4102   -1.2846 C   0  0  0  0  0  0  0  0  0  0  0  0
    3.0249    0.6658   -0.7356 N   0  0  0  0  0  0  0  0  0  0  0  0
    4.3645    1.1952   -0.6905 C   0  0  0  0  0  0  0  0  0  0  0  0
    5.3422    0.1326   -0.2546 C   0  0  0  0  0  0  0  0  0  0  0  0
    2.2282    2.4953   -1.8102 O   0  0  0  0  0  0  0  0  0  0  0  0
   -1.0853    3.7819   -0.6445 C   0  0  0  0  0  0  0  0  0  0  0  0
   -2.5854    5.3895    0.4148 C   0  0  0  0  0  0  0  0  0  0  0  0
   -2.2666    4.5378   -0.6570 C   0  0  0  0  0  0  0  0  0  0  0  0
   -0.2112    3.9390    0.4465 C   0  0  0  0  0  0  0  0  0  0  0  0
   -0.5245    4.7917    1.5094 C   0  0  0  0  0  0  0  0  0  0  0  0
   -1.7167    5.5134    1.4995 C   0  0  0  0  0  0  0  0  0  0  0  0
   -3.8526    6.1588    0.4022 C   0  0  0  0  0  0  0  0  0  0  0  0
   -3.8765    7.4828    0.7081 N   0  0  0  0  0  0  0  0  0  0  0  0
   -4.9700    5.5988    0.0597 N   0  0  0  0  0  0  0  0  0  0  0  0
    6.6465   -1.8580   -0.7457 C   0  0  0  0  0  0  0  0  0  0  0  0
    7.1427   -1.8979    0.5679 C   0  0  0  0  0  0  0  0  0  0  0  0
    6.7180   -0.9080    1.4634 C   0  0  0  0  0  0  0  0  0  0  0  0
    5.8255    0.0939    1.0565 C   0  0  0  0  0  0  0  0  0  0  0  0
    5.7554   -0.8579   -1.1505 C   0  0  0  0  0  0  0  0  0  0  0  0
    8.1071   -3.0021    0.9673 N   0  0  0  0  0  0  0  0  0  0  0  0
    9.3556   -2.9027    0.0957 C   0  0  0  0  0  0  0  0  0  0  0  0
    7.4156   -4.3500    0.7821 C   0  0  0  0  0  0  0  0  0  0  0  0
    8.5438   -2.8966    2.4257 C   0  0  0  0  0  0  0  0  0  0  0  0
   -4.0223   -2.6226   -0.1239 O   0  0  0  0  0  0  0  0  0  0  0  0
   -5.4445   -2.5099   -0.1406 C   0  0  0  0  0  0  0  0  0  0  0  0
   -6.0211   -3.8387    0.2803 C   0  0  0  0  0  0  0  0  0  0  0  0
   -6.3747   -4.0718    1.6165 C   0  0  0  0  0  0  0  0  0  0  0  0
   -6.8975   -5.3060    2.0044 C   0  0  0  0  0  0  0  0  0  0  0  0
   -7.0632   -6.3207    1.0635 C   0  0  0  0  0  0  0  0  0  0  0  0
   -6.7031   -6.1042   -0.2653 C   0  0  0  0  0  0  0  0  0  0  0  0
   -6.1797   -4.8711   -0.6549 C   0  0  0  0  0  0  0  0  0  0  0  0
   -3.0849    4.4364   -1.7542 O   0  0  0  0  0  0  0  0  0  0  0  0
   -4.8975   -0.0958   -0.8699 H   0  0  0  0  0  0  0  0  0  0  0  0
   -3.4177    1.7589   -1.4308 H   0  0  0  0  0  0  0  0  0  0  0  0
   -1.5093   -2.6610   -0.1536 H   0  0  0  0  0  0  0  0  0  0  0  0
    1.0543   -1.2844   -0.5963 H   0  0  0  0  0  0  0  0  0  0  0  0
   -1.5116    2.8220   -2.5574 H   0  0  0  0  0  0  0  0  0  0  0  0
    0.1593    3.2208   -2.3070 H   0  0  0  0  0  0  0  0  0  0  0  0
    2.7768   -0.0734   -0.0963 H   0  0  0  0  0  0  0  0  0  0  0  0
    4.6405    1.5834   -1.6787 H   0  0  0  0  0  0  0  0  0  0  0  0
    4.3715    2.0448    0.0030 H   0  0  0  0  0  0  0  0  0  0  0  0
    0.7329    3.3977    0.4739 H   0  0  0  0  0  0  0  0  0  0  0  0
    0.1630    4.8878    2.3467 H   0  0  0  0  0  0  0  0  0  0  0  0
   -1.9632    6.1516    2.3431 H   0  0  0  0  0  0  0  0  0  0  0  0
   -3.1689    7.8631    1.3230 H   0  0  0  0  0  0  0  0  0  0  0  0
   -4.8156    7.8267    0.8932 H   0  0  0  0  0  0  0  0  0  0  0  0
   -4.8470    4.5868   -0.0819 H   0  0  0  0  0  0  0  0  0  0  0  0
    6.9326   -2.5968   -1.4893 H   0  0  0  0  0  0  0  0  0  0  0  0
    7.0473   -0.8637    2.4959 H   0  0  0  0  0  0  0  0  0  0  0  0
    5.5104    0.8494    1.7768 H   0  0  0  0  0  0  0  0  0  0  0  0
    5.3786   -0.8529   -2.1739 H   0  0  0  0  0  0  0  0  0  0  0  0
    9.7858   -1.9026    0.2098 H   0  0  0  0  0  0  0  0  0  0  0  0
    9.0932   -3.0973   -0.9475 H   0  0  0  0  0  0  0  0  0  0  0  0
   10.0690   -3.6614    0.4331 H   0  0  0  0  0  0  0  0  0  0  0  0
    7.1972   -4.5100   -0.2772 H   0  0  0  0  0  0  0  0  0  0  0  0
    6.4959   -4.3567    1.3764 H   0  0  0  0  0  0  0  0  0  0  0  0
    8.0962   -5.1335    1.1309 H   0  0  0  0  0  0  0  0  0  0  0  0
    9.0639   -1.9455    2.5784 H   0  0  0  0  0  0  0  0  0  0  0  0
    7.6643   -2.9888    3.0708 H   0  0  0  0  0  0  0  0  0  0  0  0
    9.2331   -3.7211    2.6372 H   0  0  0  0  0  0  0  0  0  0  0  0
   -5.8022   -2.2663   -1.1496 H   0  0  0  0  0  0  0  0  0  0  0  0
   -5.7804   -1.7295    0.5552 H   0  0  0  0  0  0  0  0  0  0  0  0
   -6.2426   -3.2924    2.3637 H   0  0  0  0  0  0  0  0  0  0  0  0
   -7.1748   -5.4771    3.0413 H   0  0  0  0  0  0  0  0  0  0  0  0
   -7.4717   -7.2814    1.3663 H   0  0  0  0  0  0  0  0  0  0  0  0
   -6.8279   -6.8972   -0.9977 H   0  0  0  0  0  0  0  0  0  0  0  0
   -5.8916   -4.7188   -1.6928 H   0  0  0  0  0  0  0  0  0  0  0  0
   -3.7397    5.1682   -1.7352 H   0  0  0  0  0  0  0  0  0  0  0  0
  1  2  2  0
  1  6  1  0
  1 34  1  0
  2  3  1  0
  3  4  2  0
  4  5  1  0
  4  8  1  0
  5  6  2  0
  5  7  1  0
  7  9  2  0
  8  9  1  0
  8 10  1  0
  9 11  1  0
 10 16  1  0
 11 12  1  0
 11 15  2  0
 12 13  1  0
 13 14  1  0
 14 28  1  0
 14 29  2  0
 16 18  1  0
 16 19  2  0
 17 18  2  0
 17 21  1  0
 17 22  1  0
 18 42  1  0
 19 20  1  0
 20 21  2  0
 22 23  1  0
 22 24  2  0
 25 26  2  0
 25 29  1  0
 26 27  1  0
 26 30  1  0
 27 28  2  0
 30 31  1  0
 30 32  1  0
 30 33  1  0
 34 35  1  0
 35 36  1  0
 36 37  2  0
 36 41  1  0
 37 38  1  0
 38 39  2  0
 39 40  1  0
 40 41  2  0
  2 43  1  0
  3 44  1  0
  6 45  1  0
  7 46  1  0
 10 47  1  0
 10 48  1  0
 12 49  1  0
 13 50  1  0
 13 51  1  0
 19 52  1  0
 20 53  1  0
 21 54  1  0
 23 55  1  0
 23 56  1  0
 24 57  1  0
 25 58  1  0
 27 59  1  0
 28 60  1  0
 29 61  1  0
 31 62  1  0
 31 63  1  0
 31 64  1  0
 32 65  1  0
 32 66  1  0
 32 67  1  0
 33 68  1  0
 33 69  1  0
 33 70  1  0
 35 71  1  0
 35 72  1  0
 37 73  1  0
 38 74  1  0
 39 75  1  0
 40 76  1  0
 41 77  1  0
 42 78  1  0
M  CHG  1  30   1
M  END
