0CA
  CCTOOLS-0919241028

 74 78  0  0  0  0  0  0  0  0999 V2000
    1.1860    2.6040    0.8390 C   0  0  0  0  0
   -3.6720   -4.0850    0.4510 C   0  0  0  0  0
    1.9740    1.5230    0.4490 C   0  0  0  0  0
   -2.1890    3.3520   -0.3310 C   0  0  0  0  0
   -3.5020    4.0800   -0.4670 C   0  0  0  0  0
   -3.4590    0.4020   -1.2370 C   0  0  0  0  0
   -4.7480    0.6380   -0.7620 C   0  0  0  0  0
   -5.4450   -0.3350   -0.1140 C   0  0  0  0  0
   -2.8600   -0.8080   -1.0660 C   0  0  0  0  0
   -3.5500   -1.8380   -0.4010 C   0  0  0  0  0
   -4.8610   -1.5980    0.0810 C   0  0  0  0  0
    1.4890    0.6030   -0.4690 C   0  0  0  0  0
    8.3350   -0.8630   -0.9120 N   0  0  0  0  0
    5.2730   -2.2430    0.5210 C   0  0  0  0  0
    3.9550   -2.0700   -0.2400 C   0  0  0  0  0
    3.5130   -0.6070   -0.1610 C   0  0  0  0  0
    4.5710    0.2830   -0.8180 C   0  0  0  0  0
    5.8960    0.1370   -0.0640 C   0  0  0  0  0
    7.4810   -1.7150   -0.4460 C   0  0  0  0  0
   -2.9620   -3.0970   -0.2080 C   0  0  0  0  0
   -3.0560   -5.4140    0.6640 C   0  0  0  0  0
   -1.8490   -5.6490    0.2320 N   0  0  0  0  0
   -3.7580   -6.4020    1.3200 N   0  0  0  0  0
   -4.9710   -3.8350    0.9250 C   0  0  0  0  0
   -5.5570   -2.6240    0.7470 C   0  0  0  0  0
   -2.7170    1.5040   -1.9490 C   0  0  0  0  0
   -1.8540    2.2070   -0.9970 N   0  0  0  0  0
   -3.8980    4.6730    0.8870 C   0  0  0  0  0
   -3.3570    5.2050   -1.4930 C   0  0  0  0  0
   -1.1730    3.7330    0.4640 C   0  0  0  0  0
   -0.1050    2.7520    0.2910 C   0  0  0  0  0
    1.6950    3.5800    1.8180 C   0  0  0  0  0
    2.9270    3.4290    2.3420 O   0  0  0  0  0
    1.0030    4.5210    2.1530 O   0  0  0  0  0
   -0.5830    1.8120   -0.6390 C   0  0  0  0  0
    0.2230    0.7430   -1.0110 C   0  0  0  0  0
    2.2670   -0.4480   -0.8420 O   0  0  0  0  0
    6.2550   -1.2870   -0.0100 N   0  0  0  0  0
    7.8340   -3.1780   -0.3840 C   0  0  0  0  0
    2.9640    1.4010    0.8630 H   0  0  0  0  0
   -4.2710    3.3830   -0.7980 H   0  0  0  0  0
   -5.2000    1.6070   -0.9110 H   0  0  0  0  0
   -6.4440   -0.1370    0.2480 H   0  0  0  0  0
   -1.8610   -0.9770   -1.4390 H   0  0  0  0  0
    5.1120   -2.0490    1.5820 H   0  0  0  0  0
    5.6420   -3.2600    0.3870 H   0  0  0  0  0
    4.0970   -2.3510   -1.2830 H   0  0  0  0  0
    3.1910   -2.7050    0.2080 H   0  0  0  0  0
    3.3950   -0.3190    0.8840 H   0  0  0  0  0
    4.7070   -0.0200   -1.8560 H   0  0  0  0  0
    4.2440    1.3230   -0.7830 H   0  0  0  0  0
    6.6760    0.6910   -0.5860 H   0  0  0  0  0
    5.7850    0.5250    0.9490 H   0  0  0  0  0
   -1.9640   -3.2940   -0.5700 H   0  0  0  0  0
   -1.4460   -6.5200    0.3710 H   0  0  0  0  0
   -4.6560   -6.2270    1.6420 H   0  0  0  0  0
   -3.3540   -7.2730    1.4590 H   0  0  0  0  0
   -5.5110   -4.6180    1.4380 H   0  0  0  0  0
   -6.5560   -2.4470    1.1170 H   0  0  0  0  0
   -2.1070    1.0750   -2.7450 H   0  0  0  0  0
   -3.4330    2.2050   -2.3780 H   0  0  0  0  0
   -3.1290    5.3700    1.2180 H   0  0  0  0  0
   -4.8480    5.1990    0.7890 H   0  0  0  0  0
   -4.0010    3.8710    1.6180 H   0  0  0  0  0
   -2.5340    5.8580   -1.2030 H   0  0  0  0  0
   -3.1530    4.7770   -2.4750 H   0  0  0  0  0
   -4.2810    5.7820   -1.5330 H   0  0  0  0  0
   -1.1510    4.6000    1.1080 H   0  0  0  0  0
    3.2170    4.0950    2.9800 H   0  0  0  0  0
   -0.1400    0.0190   -1.7250 H   0  0  0  0  0
    8.8420   -3.3260   -0.7720 H   0  0  0  0  0
    7.7880   -3.5200    0.6500 H   0  0  0  0  0
    7.1260   -3.7490   -0.9860 H   0  0  0  0  0
    9.2030   -1.1660   -1.2200 H   0  0  0  0  0
  1  3  2  0  0  0
  1 31  1  0  0  0
  2 20  2  0  0  0
  2 24  1  0  0  0
  3 12  1  0  0  0
  3 40  1  0  0  0
  4 27  1  0  0  0
  4  5  1  0  0  0
  5 28  1  0  0  0
  5 41  1  0  0  0
  6 26  1  0  0  0
  6  7  2  0  0  0
  7 42  1  0  0  0
  8  7  1  0  0  0
  8 43  1  0  0  0
  9  6  1  0  0  0
  9 44  1  0  0  0
 10  9  2  0  0  0
 10 11  1  0  0  0
 11  8  2  0  0  0
 12 37  1  0  0  0
 12 36  2  0  0  0
 13 74  1  0  0  0
 14 15  1  0  0  0
 14 45  1  0  0  0
 14 46  1  0  0  0
 15 47  1  0  0  0
 15 48  1  0  0  0
 16 15  1  0  0  0
 16 37  1  0  0  0
 16 49  1  0  0  0
 17 16  1  0  0  0
 17 50  1  0  0  0
 17 51  1  0  0  0
 18 38  1  0  0  0
 18 17  1  0  0  0
 18 52  1  0  0  0
 18 53  1  0  0  0
 19 13  2  0  0  0
 20 10  1  0  0  0
 20 54  1  0  0  0
 21  2  1  0  0  0
 22 21  2  0  0  0
 22 55  1  0  0  0
 23 21  1  0  0  0
 23 56  1  0  0  0
 23 57  1  0  0  0
 24 25  2  0  0  0
 24 58  1  0  0  0
 25 11  1  0  0  0
 25 59  1  0  0  0
 26 60  1  0  0  0
 26 61  1  0  0  0
 27 26  1  0  0  0
 28 62  1  0  0  0
 28 63  1  0  0  0
 28 64  1  0  0  0
 29  5  1  0  0  0
 29 65  1  0  0  0
 29 66  1  0  0  0
 29 67  1  0  0  0
 30  4  2  0  0  0
 30 68  1  0  0  0
 31 30  1  0  0  0
 31 35  2  0  0  0
 32 33  1  0  0  0
 32  1  1  0  0  0
 33 69  1  0  0  0
 34 32  2  0  0  0
 35 36  1  0  0  0
 35 27  1  0  0  0
 36 70  1  0  0  0
 38 19  1  0  0  0
 38 14  1  0  0  0
 39 19  1  0  0  0
 39 71  1  0  0  0
 39 72  1  0  0  0
 39 73  1  0  0  0
M  END
$$$$
