0G6
  CCTOOLS-1004241120

 65 66  0  0  1  0  0  0  0  0999 V2000
    3.6740   -1.1200   -1.9150 N   0  0  0  0  0
    3.5470   -0.6620   -0.5250 C   0  0  0  0  0
    2.0990   -0.7060   -0.1110 C   0  0  0  0  0
    1.3140   -1.3980   -0.7250 O   0  0  0  0  0
    4.3660   -1.5760    0.3900 C   0  0  0  0  0
    5.8300   -1.4380    0.0560 C   0  0  0  0  0
    6.5990   -0.4880    0.7010 C   0  0  0  0  0
    6.4030   -2.2660   -0.8900 C   0  0  0  0  0
    7.9410   -0.3620    0.3960 C   0  0  0  0  0
    7.7460   -2.1400   -1.1960 C   0  0  0  0  0
    8.5140   -1.1860   -0.5550 C   0  0  0  0  0
    1.6760    0.0230    0.9410 N   0  0  0  0  0
    0.2970    0.0730    1.4490 C   0  0  0  0  0
   -0.6300    0.5670    0.3690 C   0  0  0  0  0
   -0.1900    0.8520   -0.7250 O   0  0  0  0  0
    0.2840    1.0540    2.6410 C   0  0  0  0  0
    1.5360    1.9330    2.3810 C   0  0  0  0  0
    2.5200    0.8970    1.7750 C   0  0  0  0  0
   -1.9490    0.6920    0.6180 N   0  0  0  0  0
   -2.8510    1.1710   -0.4320 C   0  0  0  0  0
   -2.8570    2.7010   -0.4400 C   0  0  0  0  0
   -3.7360    3.1700   -1.4640 O   0  0  0  0  0
   -4.2660    0.6570   -0.1630 C   0  0  0  0  0
   -4.2860   -0.8680   -0.2790 C   0  0  0  0  0
   -5.7010   -1.3820   -0.0100 C   0  0  0  0  0
   -5.7200   -2.8430   -0.1210 N   0  0  0  0  0
   -6.8850   -3.5300    0.0800 C   0  0  0  0  0
   -8.0040   -2.8700    0.3760 N   0  0  0  0  0
   -6.9020   -4.8580   -0.0210 N   0  3  0  0  0
   -1.4410    3.2160   -0.7090 C   0  0  0  0  0
   -1.4180    5.0130   -0.5720 CL  0  0  0  0  0
    4.6260   -1.0390   -2.2370 H   0  0  0  0  0
    3.3370   -2.0660   -2.0160 H   0  0  0  0  0
    3.9170    0.3600   -0.4430 H   0  0  0  0  0
    4.2020   -1.2910    1.4290 H   0  0  0  0  0
    4.0560   -2.6100    0.2430 H   0  0  0  0  0
    6.1520    0.1560    1.4440 H   0  0  0  0  0
    5.8030   -3.0110   -1.3910 H   0  0  0  0  0
    8.5420    0.3800    0.8990 H   0  0  0  0  0
    8.1940   -2.7870   -1.9360 H   0  0  0  0  0
    9.5630   -1.0880   -0.7940 H   0  0  0  0  0
   -0.0130   -0.9180    1.7790 H   0  0  0  0  0
   -0.6220    1.6610    2.6310 H   0  0  0  0  0
    0.3790    0.5160    3.5840 H   0  0  0  0  0
    1.3140    2.7290    1.6710 H   0  0  0  0  0
    1.9270    2.3410    3.3130 H   0  0  0  0  0
    3.0000    0.3200    2.5640 H   0  0  0  0  0
    3.2680    1.4000    1.1620 H   0  0  0  0  0
   -2.3010    0.4640    1.4930 H   0  0  0  0  0
   -2.5090    0.8050   -1.4000 H   0  0  0  0  0
   -4.5740    0.9490    0.8410 H   0  0  0  0  0
   -4.9530    1.0860   -0.8930 H   0  0  0  0  0
   -3.9780   -1.1600   -1.2830 H   0  0  0  0  0
   -3.5990   -1.2970    0.4510 H   0  0  0  0  0
   -6.0090   -1.0900    0.9940 H   0  0  0  0  0
   -6.3880   -0.9540   -0.7400 H   0  0  0  0  0
   -4.9050   -3.3230   -0.3370 H   0  0  0  0  0
   -7.9920   -1.9030    0.4500 H   0  0  0  0  0
   -8.8310   -3.3570    0.5190 H   0  0  0  0  0
   -6.0880   -5.3380   -0.2370 H   0  0  0  0  0
   -7.7290   -5.3450    0.1210 H   0  0  0  0  0
   -0.7540    2.7870    0.0210 H   0  0  0  0  0
   -1.1330    2.9240   -1.7130 H   0  0  0  0  0
   -3.1980    3.0680    0.5280 H   0  0  0  0  0
   -4.6530    2.8810   -1.3570 H   0  0  0  0  0
  1  2  1  0  0  0
  1 32  1  0  0  0
  1 33  1  0  0  0
  2  3  1  0  0  0
  2  5  1  0  0  0
  2 34  1  0  0  0
  3  4  2  0  0  0
  3 12  1  0  0  0
  5  6  1  0  0  0
  5 35  1  0  0  0
  5 36  1  0  0  0
  6  7  2  0  0  0
  6  8  1  0  0  0
  7  9  1  0  0  0
  7 37  1  0  0  0
  8 10  2  0  0  0
  8 38  1  0  0  0
  9 11  2  0  0  0
  9 39  1  0  0  0
 10 11  1  0  0  0
 10 40  1  0  0  0
 11 41  1  0  0  0
 12 13  1  0  0  0
 12 18  1  0  0  0
 13 14  1  0  0  0
 13 16  1  0  0  0
 13 42  1  0  0  0
 14 15  2  0  0  0
 14 19  1  0  0  0
 16 17  1  0  0  0
 16 43  1  0  0  0
 16 44  1  0  0  0
 17 18  1  0  0  0
 17 45  1  0  0  0
 17 46  1  0  0  0
 18 47  1  0  0  0
 18 48  1  0  0  0
 19 20  1  0  0  0
 19 49  1  0  0  0
 20 21  1  0  0  0
 20 23  1  0  0  0
 20 50  1  0  0  0
 21 22  1  0  0  0
 21 30  1  0  0  0
 21 64  1  0  0  0
 22 65  1  0  0  0
 23 24  1  0  0  0
 23 51  1  0  0  0
 23 52  1  0  0  0
 24 25  1  0  0  0
 24 53  1  0  0  0
 24 54  1  0  0  0
 25 26  1  0  0  0
 25 55  1  0  0  0
 25 56  1  0  0  0
 26 27  1  0  0  0
 26 57  1  0  0  0
 27 28  1  0  0  0
 27 29  2  0  0  0
 28 58  1  0  0  0
 28 59  1  0  0  0
 29 60  1  0  0  0
 29 61  1  0  0  0
 30 62  1  0  0  0
 30 63  1  0  0  0
 31 30  1  0  0  0
M  CHG  1  29   1
M  END
$$$$
