0IV
  CCTOOLS-0919241029

 69 71  0  0  1  0  0  0  0  0999 V2000
    4.2020   -0.3450   -0.3980 C   0  0  0  0  0
    5.2310   -1.3650    0.0180 C   0  0  0  0  0
    5.2410   -1.8490    1.3130 C   0  0  0  0  0
    6.1850   -2.7840    1.6940 C   0  0  0  0  0
    7.1180   -3.2360    0.7800 C   0  0  0  0  0
    7.1070   -2.7530   -0.5160 C   0  0  0  0  0
    6.1610   -1.8210   -0.8980 C   0  0  0  0  0
    4.8500    1.3230   -0.1020 S   0  0  0  0  0
    4.9690    1.5730    1.2920 O   0  0  0  0  0
    5.9230    1.6060   -0.9910 O   0  0  0  0  0
    3.6340    2.3330   -0.5960 N   0  0  0  0  0
    2.3530    2.3390    0.1150 C   0  0  0  0  0
    1.7870    3.7610    0.1300 C   0  0  0  0  0
    0.3380    3.7010    0.6270 C   0  0  0  0  0
   -0.5090    2.9760   -0.4200 C   0  0  0  0  0
    1.3940    1.4140   -0.5770 C   0  0  0  0  0
    1.8080    0.3420   -0.9640 O   0  0  0  0  0
    0.1110    1.7090   -0.7890 N   0  0  0  0  0
   -0.7290    0.6960   -1.4330 C   0  0  0  0  0
   -1.3500   -0.1850   -0.3790 C   0  0  0  0  0
   -1.1140    0.0140    0.7940 O   0  0  0  0  0
   -7.3420   -1.0300   -1.4540 C   0  0  0  0  0
   -7.7580   -0.3760   -0.1330 C   0  0  0  0  0
   -2.1670   -1.1940   -0.7400 N   0  0  0  0  0
   -2.7700   -2.0510    0.2840 C   0  0  0  0  0
   -1.8090   -3.1520    0.6480 C   0  0  0  0  0
   -0.7300   -3.2160    0.1080 O   0  0  0  0  0
   -4.0640   -2.6620   -0.2590 C   0  0  0  0  0
   -6.4280    1.3700    1.0020 C   0  0  0  0  0
   -6.5510    0.0690    0.5760 N   0  0  0  0  0
   -6.3330   -2.1450   -1.1710 C   0  0  0  0  0
   -5.0850   -1.5510   -0.5120 C   0  0  0  0  0
   -5.4760   -0.9030    0.8200 C   0  0  0  0  0
   -5.4000    1.7270    1.7200 N   0  0  0  0  0
   -7.3900    2.2950    0.6730 N   0  0  0  0  0
    3.9780   -0.4650   -1.4580 H   0  0  0  0  0
    3.2920   -0.4890    0.1840 H   0  0  0  0  0
    4.5120   -1.4950    2.0270 H   0  0  0  0  0
    6.1930   -3.1610    2.7050 H   0  0  0  0  0
    7.8560   -3.9660    1.0770 H   0  0  0  0  0
    7.8370   -3.1060   -1.2300 H   0  0  0  0  0
    6.1500   -1.4460   -1.9110 H   0  0  0  0  0
    3.7700    2.9200   -1.3560 H   0  0  0  0  0
    2.5060    2.0000    1.1390 H   0  0  0  0  0
    2.3790    4.3850    0.8000 H   0  0  0  0  0
    1.8130    4.1770   -0.8770 H   0  0  0  0  0
    0.2970    3.1570    1.5700 H   0  0  0  0  0
   -0.0430    4.7120    0.7680 H   0  0  0  0  0
   -1.5020    2.7860   -0.0120 H   0  0  0  0  0
   -0.5980    3.6020   -1.3080 H   0  0  0  0  0
   -1.5160    1.1860   -2.0060 H   0  0  0  0  0
   -0.1180    0.0880   -2.1010 H   0  0  0  0  0
   -8.2200   -1.4500   -1.9450 H   0  0  0  0  0
   -6.8850   -0.2820   -2.1020 H   0  0  0  0  0
   -8.4000    0.4810   -0.3360 H   0  0  0  0  0
   -8.2960   -1.1000    0.4800 H   0  0  0  0  0
   -2.3560   -1.3540   -1.6790 H   0  0  0  0  0
   -2.9940   -1.4560    1.1690 H   0  0  0  0  0
   -3.8550   -3.1830   -1.1940 H   0  0  0  0  0
   -4.4660   -3.3670    0.4680 H   0  0  0  0  0
   -6.7810   -2.8800   -0.5030 H   0  0  0  0  0
   -6.0530   -2.6280   -2.1080 H   0  0  0  0  0
   -4.6500   -0.7990   -1.1690 H   0  0  0  0  0
   -4.6120   -0.3930    1.2450 H   0  0  0  0  0
   -5.8270   -1.6700    1.5100 H   0  0  0  0  0
   -5.3140    2.6450    2.0210 H   0  0  0  0  0
   -8.1940    2.0140    0.2080 H   0  0  0  0  0
   -7.2660    3.2280    0.9050 H   0  0  0  0  0
   -2.0840   -3.8850    1.3920 H   0  0  0  0  0
  1  2  1  0  0  0
  1  8  1  0  0  0
  1 36  1  0  0  0
  1 37  1  0  0  0
  2  3  2  0  0  0
  2  7  1  0  0  0
  3  4  1  0  0  0
  3 38  1  0  0  0
  4  5  2  0  0  0
  4 39  1  0  0  0
  5  6  1  0  0  0
  5 40  1  0  0  0
  6  7  2  0  0  0
  6 41  1  0  0  0
  7 42  1  0  0  0
  8  9  2  0  0  0
  8 11  1  0  0  0
 10  8  2  0  0  0
 11 12  1  0  0  0
 11 43  1  0  0  0
 12 13  1  0  0  0
 12 16  1  0  0  0
 12 44  1  0  0  0
 13 14  1  0  0  0
 13 45  1  0  0  0
 13 46  1  0  0  0
 14 15  1  0  0  0
 14 47  1  0  0  0
 14 48  1  0  0  0
 15 49  1  0  0  0
 15 50  1  0  0  0
 16 17  2  0  0  0
 16 18  1  0  0  0
 18 15  1  0  0  0
 18 19  1  0  0  0
 19 20  1  0  0  0
 19 51  1  0  0  0
 19 52  1  0  0  0
 20 21  2  0  0  0
 20 24  1  0  0  0
 22 23  1  0  0  0
 22 31  1  0  0  0
 22 53  1  0  0  0
 22 54  1  0  0  0
 23 30  1  0  0  0
 23 55  1  0  0  0
 23 56  1  0  0  0
 24 25  1  0  0  0
 24 57  1  0  0  0
 25 26  1  0  0  0
 25 28  1  0  0  0
 25 58  1  0  0  0
 26 27  2  0  0  0
 28 32  1  0  0  0
 28 59  1  0  0  0
 28 60  1  0  0  0
 29 30  1  0  0  0
 29 34  2  0  0  0
 29 35  1  0  0  0
 30 33  1  0  0  0
 31 32  1  0  0  0
 31 61  1  0  0  0
 31 62  1  0  0  0
 32 33  1  0  0  0
 32 63  1  0  0  0
 33 64  1  0  0  0
 33 65  1  0  0  0
 34 66  1  0  0  0
 35 67  1  0  0  0
 35 68  1  0  0  0
 69 26  1  0  0  0
M  END
$$$$
