0KV
  CCTOOLS-0919241029

 69 71  0  0  1  0  0  0  0  0999 V2000
    4.0200   -0.2850   -0.5300 C   0  0  0  0  0
    5.1100   -1.3160   -0.3890 C   0  0  0  0  0
    5.3020   -1.9580    0.8200 C   0  0  0  0  0
    6.3020   -2.9030    0.9490 C   0  0  0  0  0
    7.1100   -3.2070   -0.1300 C   0  0  0  0  0
    6.9180   -2.5650   -1.3390 C   0  0  0  0  0
    5.9140   -1.6240   -1.4710 C   0  0  0  0  0
    4.6780    1.3520   -0.1110 S   0  0  0  0  0
    4.9800    1.4280    1.2750 O   0  0  0  0  0
    5.6160    1.7780   -1.0900 O   0  0  0  0  0
    3.3920    2.3770   -0.3060 N   0  0  0  0  0
    1.1840    1.4020   -0.1140 C   0  0  0  0  0
    1.5530    0.4020   -0.6940 O   0  0  0  0  0
    2.2190    2.2530    0.5630 C   0  0  0  0  0
    1.6450    3.6450    0.8440 C   0  0  0  0  0
   -0.6950    2.8770    0.4970 C   0  0  0  0  0
    0.2770    3.4780    1.5160 C   0  0  0  0  0
   -1.4920   -0.2860    0.2260 C   0  0  0  0  0
   -0.1190    1.6860   -0.1130 N   0  0  0  0  0
   -1.0990   -0.2410    1.3720 O   0  0  0  0  0
   -1.0280    0.7440   -0.7710 C   0  0  0  0  0
   -1.7790   -3.3750    0.8930 C   0  0  0  0  0
   -2.3410   -1.2610   -0.1570 N   0  0  0  0  0
   -0.7830   -3.3360    0.2120 O   0  0  0  0  0
   -6.5700   -2.3210    0.0790 C   0  0  0  0  0
   -7.6340   -1.2230    0.1480 C   0  0  0  0  0
   -7.3160   -0.1440   -0.8920 C   0  0  0  0  0
   -2.7920   -2.2620    0.8120 C   0  0  0  0  0
   -4.1410   -2.8320    0.3670 C   0  0  0  0  0
   -4.8530   -0.6530   -0.6340 C   0  0  0  0  0
   -5.9430    0.3310   -0.6760 N   0  0  0  0  0
   -5.1980   -1.7270    0.4040 C   0  0  0  0  0
   -5.6820    1.6720   -0.5170 C   0  0  0  0  0
   -6.6930    2.5910   -0.6720 N   0  0  0  0  0
   -4.4780    2.0710   -0.2210 N   0  0  0  0  0
    3.6570   -0.2790   -1.5580 H   0  0  0  0  0
    3.1990   -0.5300    0.1430 H   0  0  0  0  0
    4.6710   -1.7210    1.6630 H   0  0  0  0  0
    6.4520   -3.4050    1.8940 H   0  0  0  0  0
    7.8920   -3.9450   -0.0290 H   0  0  0  0  0
    7.5500   -2.8010   -2.1830 H   0  0  0  0  0
    5.7640   -1.1220   -2.4150 H   0  0  0  0  0
    2.5120    1.7870    1.5030 H   0  0  0  0  0
    3.4150    3.0590   -0.9960 H   0  0  0  0  0
    2.3160    4.1910    1.5070 H   0  0  0  0  0
    1.5310    4.1900   -0.0930 H   0  0  0  0  0
    0.3630    2.8140    2.3750 H   0  0  0  0  0
   -0.0880    4.4530    1.8390 H   0  0  0  0  0
   -0.9130    3.6100   -0.2800 H   0  0  0  0  0
   -1.6220    2.6100    1.0050 H   0  0  0  0  0
   -0.5060    0.2480   -1.5900 H   0  0  0  0  0
   -1.8890    1.2840   -1.1640 H   0  0  0  0  0
   -2.6520   -1.2990   -1.0750 H   0  0  0  0  0
   -6.8070   -3.1020    0.8020 H   0  0  0  0  0
   -8.6140   -1.6520   -0.0600 H   0  0  0  0  0
   -7.4040   -0.5650   -1.8930 H   0  0  0  0  0
   -2.9000   -1.7970    1.7920 H   0  0  0  0  0
   -4.0540   -3.2180   -0.6490 H   0  0  0  0  0
   -4.4340   -3.6380    1.0380 H   0  0  0  0  0
   -4.7400   -1.1160   -1.6140 H   0  0  0  0  0
   -3.9230   -0.1580   -0.3540 H   0  0  0  0  0
   -5.2210   -1.2790    1.3970 H   0  0  0  0  0
   -7.6030    2.2910   -0.8220 H   0  0  0  0  0
   -6.4950    3.5400   -0.6310 H   0  0  0  0  0
   -4.2940    3.0170   -0.1090 H   0  0  0  0  0
   -1.9440   -4.2080    1.5610 H   0  0  0  0  0
   -6.5530   -2.7480   -0.9240 H   0  0  0  0  0
   -7.6340   -0.7790    1.1440 H   0  0  0  0  0
   -8.0120    0.6870   -0.7800 H   0  0  0  0  0
  1 36  1  0  0  0
  1 37  1  0  0  0
  2  1  1  0  0  0
  2  3  1  0  0  0
  3 38  1  0  0  0
  4  3  2  0  0  0
  4 39  1  0  0  0
  5  4  1  0  0  0
  5 40  1  0  0  0
  6  5  2  0  0  0
  6  7  1  0  0  0
  6 41  1  0  0  0
  7  2  2  0  0  0
  7 42  1  0  0  0
  8  9  2  0  0  0
  8  1  1  0  0  0
 10  8  2  0  0  0
 11  8  1  0  0  0
 11 44  1  0  0  0
 12 14  1  0  0  0
 12 13  2  0  0  0
 14 11  1  0  0  0
 14 43  1  0  0  0
 15 14  1  0  0  0
 15 45  1  0  0  0
 15 46  1  0  0  0
 16 19  1  0  0  0
 16 17  1  0  0  0
 16 49  1  0  0  0
 16 50  1  0  0  0
 17 15  1  0  0  0
 17 47  1  0  0  0
 17 48  1  0  0  0
 18 23  1  0  0  0
 18 21  1  0  0  0
 19 12  1  0  0  0
 20 18  2  0  0  0
 21 19  1  0  0  0
 21 51  1  0  0  0
 21 52  1  0  0  0
 22 28  1  0  0  0
 22 66  1  0  0  0
 23 53  1  0  0  0
 24 22  2  0  0  0
 25 32  1  0  0  0
 25 26  1  0  0  0
 25 67  1  0  0  0
 25 54  1  0  0  0
 26 27  1  0  0  0
 26 68  1  0  0  0
 26 55  1  0  0  0
 27 31  1  0  0  0
 27 69  1  0  0  0
 27 56  1  0  0  0
 28 23  1  0  0  0
 28 29  1  0  0  0
 28 57  1  0  0  0
 29 32  1  0  0  0
 29 58  1  0  0  0
 29 59  1  0  0  0
 30 31  1  0  0  0
 30 60  1  0  0  0
 30 61  1  0  0  0
 31 33  1  0  0  0
 32 30  1  0  0  0
 32 62  1  0  0  0
 33 34  1  0  0  0
 33 35  2  0  0  0
 34 63  1  0  0  0
 34 64  1  0  0  0
 35 65  1  0  0  0
M  END
$$$$
