0ZY
  CCTOOLS-1004241122

 70 69  0  0  1  0  0  0  0  0999 V2000
    5.8050    0.1740    1.2350 O   0  0  0  0  0
    5.6190    0.5610    0.0980 C   0  0  0  0  0
    6.6670    0.8780   -0.6860 O   0  0  0  0  0
    7.9900    0.7340   -0.1060 C   0  0  0  0  0
    8.2110   -0.7230    0.3050 C   0  0  0  0  0
    9.0450    1.1380   -1.1390 C   0  0  0  0  0
    8.1100    1.6350    1.1240 C   0  0  0  0  0
    4.3630    0.6670   -0.3800 N   0  0  0  0  0
    3.2230    0.3170    0.4710 C   0  0  0  0  0
    2.0530   -0.0750   -0.3940 C   0  0  0  0  0
    2.1600   -0.0620   -1.6020 O   0  0  0  0  0
    2.8400    1.5210    1.3330 C   0  0  0  0  0
    0.8870   -0.4390    0.1750 N   0  0  0  0  0
   -0.2510   -0.8200   -0.6650 C   0  0  0  0  0
   -1.5340   -0.5880    0.0900 C   0  0  0  0  0
   -1.5130   -0.4570    1.2960 O   0  0  0  0  0
   -0.1390   -2.3000   -1.0360 C   0  0  0  0  0
   -0.2800   -3.1540    0.2250 C   0  0  0  0  0
   -1.2480   -2.6640   -2.0260 C   0  0  0  0  0
   -2.7050   -0.5250   -0.5730 N   0  0  0  0  0
   -3.9370   -0.1860    0.1440 C   0  0  0  0  0
   -4.7410    0.8270   -0.6730 C   0  0  0  0  0
   -5.9610    1.2780    0.1320 C   0  0  0  0  0
   -6.8280    2.1990   -0.7290 C   0  0  0  0  0
   -8.0480    2.6510    0.0760 C   0  0  0  0  0
   -8.8810    3.5340   -0.7510 N   0  3  0  0  0
   -4.7930   -1.4850    0.3570 B   0  0  0  0  0
   -5.1690   -2.2780   -0.7580 O   0  0  0  0  0
   -5.1920   -1.8650    1.6660 O   0  0  0  0  0
   -4.8440   -0.9180    2.6780 C   0  0  0  0  0
    8.1260   -1.3650   -0.5720 H   0  0  0  0  0
    9.2050   -0.8310    0.7400 H   0  0  0  0  0
    7.4590   -1.0110    1.0400 H   0  0  0  0  0
    8.8880    2.1760   -1.4320 H   0  0  0  0  0
   10.0390    1.0290   -0.7040 H   0  0  0  0  0
    8.9600    0.4960   -2.0150 H   0  0  0  0  0
    7.3580    1.3480    1.8590 H   0  0  0  0  0
    9.1030    1.5270    1.5590 H   0  0  0  0  0
    7.9520    2.6730    0.8310 H   0  0  0  0  0
    4.2140    0.9760   -1.2870 H   0  0  0  0  0
    3.4940   -0.5200    1.1150 H   0  0  0  0  0
    1.9920    1.2600    1.9660 H   0  0  0  0  0
    3.6870    1.8040    1.9580 H   0  0  0  0  0
    2.5690    2.3580    0.6880 H   0  0  0  0  0
    0.8010   -0.4490    1.1410 H   0  0  0  0  0
   -0.2500   -0.2170   -1.5730 H   0  0  0  0  0
    0.8320   -2.4870   -1.4950 H   0  0  0  0  0
   -1.2190   -2.9130    0.7240 H   0  0  0  0  0
   -0.2750   -4.2090   -0.0480 H   0  0  0  0  0
    0.5520   -2.9490    0.8980 H   0  0  0  0  0
   -2.2190   -2.4710   -1.5700 H   0  0  0  0  0
   -1.1430   -2.0590   -2.9270 H   0  0  0  0  0
   -1.1720   -3.7200   -2.2850 H   0  0  0  0  0
   -2.7330   -0.7050   -1.5260 H   0  0  0  0  0
   -8.3430    4.3420   -1.0270 H   0  0  0  0  0
   -9.1870    3.0360   -1.5730 H   0  0  0  0  0
   -9.6860    3.8320   -0.2200 H   0  0  0  0  0
   -4.7880   -1.9830   -1.5970 H   0  0  0  0  0
   -3.6860    0.2470    1.1130 H   0  0  0  0  0
   -4.1150    1.6900   -0.9000 H   0  0  0  0  0
   -5.0710    0.3630   -1.6030 H   0  0  0  0  0
   -6.5430    0.4060    0.4310 H   0  0  0  0  0
   -5.6310    1.8170    1.0210 H   0  0  0  0  0
   -6.2470    3.0710   -1.0280 H   0  0  0  0  0
   -7.1580    1.6610   -1.6180 H   0  0  0  0  0
   -8.6300    1.7780    0.3750 H   0  0  0  0  0
   -7.7180    3.1890    0.9650 H   0  0  0  0  0
   -5.2490    0.0590    2.4160 H   0  0  0  0  0
   -5.2600   -1.2390    3.6340 H   0  0  0  0  0
   -3.7590   -0.8530    2.7570 H   0  0  0  0  0
  1  2  2  0  0  0
  2  3  1  0  0  0
  2  8  1  0  0  0
  3  4  1  0  0  0
  4  5  1  0  0  0
  4  6  1  0  0  0
  4  7  1  0  0  0
  5 31  1  0  0  0
  5 32  1  0  0  0
  5 33  1  0  0  0
  6 34  1  0  0  0
  6 35  1  0  0  0
  6 36  1  0  0  0
  7 37  1  0  0  0
  7 38  1  0  0  0
  7 39  1  0  0  0
  8  9  1  0  0  0
  8 40  1  0  0  0
  9 10  1  0  0  0
  9 12  1  0  0  0
  9 41  1  0  0  0
 10 11  2  0  0  0
 10 13  1  0  0  0
 12 42  1  0  0  0
 12 43  1  0  0  0
 12 44  1  0  0  0
 13 14  1  0  0  0
 13 45  1  0  0  0
 14 15  1  0  0  0
 14 17  1  0  0  0
 14 46  1  0  0  0
 15 16  2  0  0  0
 15 20  1  0  0  0
 17 18  1  0  0  0
 17 19  1  0  0  0
 17 47  1  0  0  0
 18 48  1  0  0  0
 18 49  1  0  0  0
 18 50  1  0  0  0
 19 51  1  0  0  0
 19 52  1  0  0  0
 19 53  1  0  0  0
 20 21  1  0  0  0
 21 27  1  0  0  0
 21 59  1  0  0  0
 22 21  1  0  0  0
 22 60  1  0  0  0
 22 61  1  0  0  0
 23 22  1  0  0  0
 23 62  1  0  0  0
 23 63  1  0  0  0
 24 23  1  0  0  0
 24 64  1  0  0  0
 24 65  1  0  0  0
 25 24  1  0  0  0
 25 66  1  0  0  0
 25 67  1  0  0  0
 26 25  1  0  0  0
 26 56  1  0  0  0
 26 55  1  0  0  0
 27 28  1  0  0  0
 27 29  1  0  0  0
 29 30  1  0  0  0
 30 68  1  0  0  0
 30 69  1  0  0  0
 30 70  1  0  0  0
 54 20  1  0  0  0
 57 26  1  0  0  0
 58 28  1  0  0  0
M  CHG  1  26   1
M  END
$$$$
