10U
  CCTOOLS-0919241031

 56 58  0  0  1  0  0  0  0  0999 V2000
    2.7940    0.5370    0.5580 C   0  0  0  0  0
    2.3890   -0.5000    1.0390 O   0  0  0  0  0
    4.2510    0.6840    0.2030 C   0  0  0  0  0
    4.9640   -0.5580    0.5320 N   0  0  0  0  0
    6.3900   -0.4510    0.1980 C   0  0  0  0  0
    6.6220   -0.8700   -1.2680 C   0  0  0  0  0
    7.9780   -1.6180   -1.2390 C   0  0  0  0  0
    7.9110   -2.3950    0.0990 C   0  0  0  0  0
    7.2090   -1.4200    1.0670 C   0  0  0  0  0
    1.9410    1.5580    0.3420 N   0  0  0  0  0
    0.5010    1.5480    0.6360 C   0  0  0  0  0
   -0.1870    0.4790   -0.1750 C   0  0  0  0  0
    0.4580   -0.2230   -0.9240 O   0  0  0  0  0
   -0.0550    2.9360    0.2530 C   0  0  0  0  0
    1.2070    3.8380    0.2860 C   0  0  0  0  0
    2.2970    2.8680   -0.2330 C   0  0  0  0  0
   -1.5190    0.3050   -0.0670 N   0  0  0  0  0
   -2.1870   -0.7340   -0.8550 C   0  0  0  0  0
   -3.6640   -0.7220   -0.5530 C   0  0  0  0  0
   -4.1630   -1.4980    0.4770 C   0  0  0  0  0
   -5.5140   -1.4910    0.7590 C   0  0  0  0  0
   -6.3760   -0.6990    0.0020 C   0  0  0  0  0
   -7.8270   -0.6860    0.2990 C   0  0  0  0  0
   -8.3000   -1.4160    1.2690 N   0  0  0  0  0
   -8.6770    0.0980   -0.4500 N   0  0  0  0  0
   -5.8670    0.0820   -1.0350 C   0  0  0  0  0
   -4.5140    0.0710   -1.3040 C   0  0  0  0  0
    4.3460    0.8860   -0.8650 H   0  0  0  0  0
    4.6810    1.5110    0.7680 H   0  0  0  0  0
    4.8370   -0.8000    1.5030 H   0  0  0  0  0
    6.7340    0.5720    0.3540 H   0  0  0  0  0
    5.8270   -1.5340   -1.6060 H   0  0  0  0  0
    6.6850    0.0090   -1.9110 H   0  0  0  0  0
    8.0580   -2.3060   -2.0810 H   0  0  0  0  0
    8.8090   -0.9130   -1.2350 H   0  0  0  0  0
    7.3230   -3.3060   -0.0180 H   0  0  0  0  0
    8.9140   -2.6320    0.4530 H   0  0  0  0  0
    7.9510   -0.8690    1.6440 H   0  0  0  0  0
    6.5480   -1.9700    1.7370 H   0  0  0  0  0
    0.3450    1.3670    1.6990 H   0  0  0  0  0
   -0.7900    3.2740    0.9830 H   0  0  0  0  0
   -0.4860    2.9120   -0.7480 H   0  0  0  0  0
    1.4290    4.1630    1.3020 H   0  0  0  0  0
    1.0930    4.6940   -0.3800 H   0  0  0  0  0
    3.2810    3.1810    0.1160 H   0  0  0  0  0
    2.2790    2.8210   -1.3220 H   0  0  0  0  0
   -2.0350    0.8660    0.5320 H   0  0  0  0  0
   -2.0320   -0.5410   -1.9160 H   0  0  0  0  0
   -1.7720   -1.7090   -0.5980 H   0  0  0  0  0
   -3.4940   -2.1120    1.0630 H   0  0  0  0  0
   -5.9020   -2.0980    1.5630 H   0  0  0  0  0
   -9.2500   -1.4070    1.4630 H   0  0  0  0  0
   -8.3250    0.6420   -1.1730 H   0  0  0  0  0
   -9.6270    0.1060   -0.2560 H   0  0  0  0  0
   -6.5300    0.6970   -1.6250 H   0  0  0  0  0
   -4.1180    0.6790   -2.1030 H   0  0  0  0  0
  1  3  1  0  0  0
  1  2  2  0  0  0
  3  4  1  0  0  0
  3 28  1  0  0  0
  3 29  1  0  0  0
  4  5  1  0  0  0
  4 30  1  0  0  0
  5  9  1  0  0  0
  5 31  1  0  0  0
  6  5  1  0  0  0
  6  7  1  0  0  0
  6 32  1  0  0  0
  6 33  1  0  0  0
  7  8  1  0  0  0
  7 34  1  0  0  0
  7 35  1  0  0  0
  8 36  1  0  0  0
  8 37  1  0  0  0
  9  8  1  0  0  0
  9 38  1  0  0  0
  9 39  1  0  0  0
 10  1  1  0  0  0
 11 10  1  0  0  0
 11 40  1  0  0  0
 12 17  1  0  0  0
 12 11  1  0  0  0
 13 12  2  0  0  0
 14 11  1  0  0  0
 14 41  1  0  0  0
 14 42  1  0  0  0
 15 14  1  0  0  0
 15 16  1  0  0  0
 15 43  1  0  0  0
 15 44  1  0  0  0
 16 10  1  0  0  0
 16 45  1  0  0  0
 16 46  1  0  0  0
 17 47  1  0  0  0
 18 17  1  0  0  0
 18 19  1  0  0  0
 18 48  1  0  0  0
 18 49  1  0  0  0
 19 27  2  0  0  0
 19 20  1  0  0  0
 20 21  2  0  0  0
 20 50  1  0  0  0
 21 22  1  0  0  0
 21 51  1  0  0  0
 22 23  1  0  0  0
 23 25  1  0  0  0
 23 24  2  0  0  0
 24 52  1  0  0  0
 25 53  1  0  0  0
 25 54  1  0  0  0
 26 22  2  0  0  0
 26 55  1  0  0  0
 27 26  1  0  0  0
 27 56  1  0  0  0
M  END
$$$$
