12U
  CCTOOLS-0919241032

 62 64  0  0  1  0  0  0  0  0999 V2000
   -1.9390    0.6910   -0.1020 C   0  0  0  0  0
   -1.2710   -0.2930    0.1370 O   0  0  0  0  0
   -3.4410    0.5890   -0.1480 C   0  0  0  0  0
   -3.8470   -0.7950    0.1280 N   0  0  0  0  0
   -5.3100   -0.9320    0.0920 C   0  0  0  0  0
   -5.7390   -2.1350    0.9570 C   0  0  0  0  0
   -7.1410   -2.0690    1.3420 C   0  0  0  0  0
   -8.0870   -2.0990    0.1250 C   0  0  0  0  0
   -8.1380   -0.7200   -0.4750 C   0  0  0  0  0
   -7.1290   -0.5390   -1.6250 C   0  0  0  0  0
   -5.7590   -1.1770   -1.3230 C   0  0  0  0  0
   -1.3360    1.8750   -0.3270 N   0  0  0  0  0
    0.1190    2.0970   -0.4070 C   0  0  0  0  0
    0.8380    1.2270    0.5920 C   0  0  0  0  0
    0.2860    0.9020    1.6220 O   0  0  0  0  0
    0.3120    3.5930   -0.0540 C   0  0  0  0  0
   -0.9310    4.2340   -0.7280 C   0  0  0  0  0
   -2.0210    3.1590   -0.5350 C   0  0  0  0  0
    2.0920    0.8040    0.3380 N   0  0  0  0  0
    2.7890   -0.0470    1.3060 C   0  0  0  0  0
    4.1640   -0.3770    0.7870 C   0  0  0  0  0
    4.3560   -1.5060    0.0110 C   0  0  0  0  0
    5.6120   -1.8100   -0.4720 C   0  0  0  0  0
    6.6920   -0.9820   -0.1680 C   0  0  0  0  0
    8.0440   -1.3060   -0.6780 C   0  0  0  0  0
    9.0510   -0.5300   -0.3920 N   0  0  0  0  0
    8.2370   -2.4270   -1.4550 N   0  0  0  0  0
    6.4940    0.1530    0.6190 C   0  0  0  0  0
    5.2320    0.4490    1.0920 C   0  0  0  0  0
   -3.8730    1.2510    0.6020 H   0  0  0  0  0
   -3.7950    0.8810   -1.1370 H   0  0  0  0  0
   -3.4080   -1.4360   -0.5150 H   0  0  0  0  0
   -5.7720   -0.0230    0.4740 H   0  0  0  0  0
   -5.5710   -3.0530    0.3940 H   0  0  0  0  0
   -5.1260   -2.1590    1.8580 H   0  0  0  0  0
   -7.3700   -2.9160    1.9880 H   0  0  0  0  0
   -7.3110   -1.1470    1.8990 H   0  0  0  0  0
   -7.7110   -2.8060   -0.6140 H   0  0  0  0  0
   -9.0860   -2.3960    0.4450 H   0  0  0  0  0
   -9.1430   -0.5370   -0.8560 H   0  0  0  0  0
   -7.9200    0.0120    0.3030 H   0  0  0  0  0
   -7.5380   -0.9960   -2.5260 H   0  0  0  0  0
   -6.9890    0.5260   -1.8060 H   0  0  0  0  0
   -5.0180   -0.7600   -2.0060 H   0  0  0  0  0
   -5.8260   -2.2520   -1.4920 H   0  0  0  0  0
    0.4810    1.8950   -1.4150 H   0  0  0  0  0
    0.2940    3.7460    1.0250 H   0  0  0  0  0
    1.2340    3.9810   -0.4870 H   0  0  0  0  0
   -1.2080    5.1600   -0.2230 H   0  0  0  0  0
   -0.7460    4.4120   -1.7870 H   0  0  0  0  0
   -2.6300    3.4000    0.3360 H   0  0  0  0  0
   -2.6490    3.1050   -1.4250 H   0  0  0  0  0
    2.5340    1.0640   -0.4860 H   0  0  0  0  0
    2.8750    0.4800    2.2560 H   0  0  0  0  0
    2.2250   -0.9680    1.4510 H   0  0  0  0  0
    3.5190   -2.1490   -0.2200 H   0  0  0  0  0
    5.7600   -2.6900   -1.0810 H   0  0  0  0  0
    9.9360   -0.7430   -0.7260 H   0  0  0  0  0
    7.4870   -3.0040   -1.6680 H   0  0  0  0  0
    9.1220   -2.6390   -1.7890 H   0  0  0  0  0
    7.3260    0.7980    0.8580 H   0  0  0  0  0
    5.0770    1.3270    1.7020 H   0  0  0  0  0
  1  2  2  0  0  0
  1  3  1  0  0  0
  3  4  1  0  0  0
  3 30  1  0  0  0
  3 31  1  0  0  0
  4  5  1  0  0  0
  4 32  1  0  0  0
  5  6  1  0  0  0
  5 11  1  0  0  0
  5 33  1  0  0  0
  6  7  1  0  0  0
  6 34  1  0  0  0
  6 35  1  0  0  0
  7  8  1  0  0  0
  7 36  1  0  0  0
  7 37  1  0  0  0
  8  9  1  0  0  0
  8 38  1  0  0  0
  8 39  1  0  0  0
  9 10  1  0  0  0
  9 40  1  0  0  0
  9 41  1  0  0  0
 10 11  1  0  0  0
 10 42  1  0  0  0
 10 43  1  0  0  0
 11 44  1  0  0  0
 11 45  1  0  0  0
 12  1  1  0  0  0
 13 16  1  0  0  0
 13 12  1  0  0  0
 13 46  1  0  0  0
 14 19  1  0  0  0
 14 13  1  0  0  0
 15 14  2  0  0  0
 16 17  1  0  0  0
 16 47  1  0  0  0
 16 48  1  0  0  0
 17 18  1  0  0  0
 17 49  1  0  0  0
 17 50  1  0  0  0
 18 12  1  0  0  0
 18 51  1  0  0  0
 18 52  1  0  0  0
 19 20  1  0  0  0
 19 53  1  0  0  0
 20 21  1  0  0  0
 20 54  1  0  0  0
 20 55  1  0  0  0
 21 29  2  0  0  0
 21 22  1  0  0  0
 22 56  1  0  0  0
 23 22  2  0  0  0
 23 57  1  0  0  0
 24 25  1  0  0  0
 24 23  1  0  0  0
 25 26  2  0  0  0
 25 27  1  0  0  0
 26 58  1  0  0  0
 27 59  1  0  0  0
 27 60  1  0  0  0
 28 24  2  0  0  0
 28 61  1  0  0  0
 29 28  1  0  0  0
 29 62  1  0  0  0
M  END
$$$$
