132
  CCTOOLS-0919241032

 43 46  0  0  0  0  0  0  0  0999 V2000
   -4.4290    0.2090    0.2840 C   0  0  0  0  0
   -4.0770   -0.9480   -0.4250 C   0  0  0  0  0
   -2.7720   -1.1670   -0.8000 C   0  0  0  0  0
   -1.7840   -0.2440   -0.4670 C   0  0  0  0  0
   -2.1300    0.9190    0.2520 C   0  0  0  0  0
   -3.4540    1.1410    0.6260 C   0  0  0  0  0
   -5.8360    0.4350    0.6760 C   0  0  0  0  0
   -6.4810   -0.4790    1.3990 N   0  0  0  0  0
   -6.4590    1.5530    0.3050 N   0  3  0  0  0
   -0.4280   -0.1980   -0.6950 N   0  0  0  0  0
   -0.8880    1.6690    0.4410 C   0  0  0  0  0
    0.0990    0.9500   -0.1490 C   0  0  0  0  0
    1.5240    1.3400   -0.1980 C   0  0  0  0  0
    1.8790    2.6720   -0.4180 C   0  0  0  0  0
    3.2090    3.0370   -0.4650 C   0  0  0  0  0
    4.2000    2.0900   -0.2930 C   0  0  0  0  0
    3.8650    0.7560   -0.0720 C   0  0  0  0  0
    2.5220    0.3770   -0.0170 C   0  0  0  0  0
    2.1870   -0.9210    0.1980 O   0  0  0  0  0
    4.9320   -0.2590    0.1110 C   0  0  0  0  0
    5.9830   -0.3400   -0.8000 C   0  0  0  0  0
    6.9730   -1.2850   -0.6250 C   0  0  0  0  0
    6.9230   -2.1510    0.4520 C   0  0  0  0  0
    5.8820   -2.0760    1.3600 C   0  0  0  0  0
    4.8900   -1.1300    1.1980 C   0  0  0  0  0
   -5.3000   -2.1060   -0.8460 CL  0  0  0  0  0
   -2.5120   -2.0590   -1.3510 H   0  0  0  0  0
   -3.7220    2.0310    1.1760 H   0  0  0  0  0
   -7.4250   -0.3670    1.5910 H   0  0  0  0  0
   -6.0070   -1.2560    1.7340 H   0  0  0  0  0
   -5.9890    2.2180   -0.2220 H   0  0  0  0  0
   -7.3830    1.6990    0.5580 H   0  0  0  0  0
    0.0800   -0.8740   -1.1700 H   0  0  0  0  0
   -0.7780    2.6140    0.9510 H   0  0  0  0  0
    1.1100    3.4180   -0.5530 H   0  0  0  0  0
    3.4770    4.0690   -0.6360 H   0  0  0  0  0
    5.2390    2.3850   -0.3310 H   0  0  0  0  0
    2.1120   -1.0350    1.1560 H   0  0  0  0  0
    6.0230    0.3350   -1.6420 H   0  0  0  0  0
    7.7890   -1.3490   -1.3310 H   0  0  0  0  0
    7.7000   -2.8900    0.5850 H   0  0  0  0  0
    5.8470   -2.7550    2.1990 H   0  0  0  0  0
    4.0770   -1.0720    1.9070 H   0  0  0  0  0
  1  2  1  0  0  0
  1  6  2  0  0  0
  1  7  1  0  0  0
  2  3  2  0  0  0
  2 26  1  0  0  0
  3  4  1  0  0  0
  3 27  1  0  0  0
  4  5  2  0  0  0
  4 10  1  0  0  0
  5  6  1  0  0  0
  5 11  1  0  0  0
  6 28  1  0  0  0
  7  8  1  0  0  0
  7  9  2  0  0  0
  8 29  1  0  0  0
  8 30  1  0  0  0
  9 31  1  0  0  0
  9 32  1  0  0  0
 10 12  1  0  0  0
 10 33  1  0  0  0
 11 12  2  0  0  0
 11 34  1  0  0  0
 12 13  1  0  0  0
 13 14  2  0  0  0
 13 18  1  0  0  0
 14 15  1  0  0  0
 14 35  1  0  0  0
 15 16  2  0  0  0
 15 36  1  0  0  0
 16 17  1  0  0  0
 16 37  1  0  0  0
 17 18  2  0  0  0
 17 20  1  0  0  0
 18 19  1  0  0  0
 19 38  1  0  0  0
 20 21  2  0  0  0
 20 25  1  0  0  0
 21 22  1  0  0  0
 21 39  1  0  0  0
 22 23  2  0  0  0
 22 40  1  0  0  0
 23 24  1  0  0  0
 23 41  1  0  0  0
 24 25  2  0  0  0
 24 42  1  0  0  0
 25 43  1  0  0  0
M  CHG  1   9   1
M  END
$$$$
