169
  CCTOOLS-1004241122

 63 63  0  0  1  0  0  0  0  0999 V2000
   -0.5300    0.5950    8.8800 C   0  0  0  0  0
    0.3630   -0.1410    7.8810 C   0  0  0  0  0
    1.7970    0.3790    7.9990 C   0  0  0  0  0
    0.3380   -1.6400    8.1830 C   0  0  0  0  0
   -0.0010   -0.3280    4.2280 N   0  0  0  0  0
   -1.1750    0.5220    3.9880 C   0  0  0  0  0
   -0.8210    1.5530    2.9090 C   0  0  0  0  0
    0.6120   -1.0260    3.0900 C   0  0  0  0  0
    0.9630   -0.0000    2.0120 C   0  0  0  0  0
   -0.7170    0.9850    0.5300 C   0  0  0  0  0
   -1.6290    1.7640    0.3270 O   0  0  0  0  0
   -0.2100    0.8510    1.7720 N   0  0  0  0  0
    0.2210    0.0740   -2.8840 C   0  0  0  0  0
    1.2880    1.1340   -2.7840 C   0  0  0  0  0
   -0.2150    0.2550   -0.4850 N   0  0  0  0  0
   -0.8390    0.3150   -1.8090 C   0  0  0  0  0
    2.4340    0.8180   -2.5700 O   0  0  0  0  0
   -0.4310    0.1370   -4.2670 C   0  0  0  0  0
    0.6290   -0.1030   -5.3430 C   0  0  0  0  0
   -0.0220   -0.0400   -6.7250 C   0  0  0  0  0
    0.9930   -0.2710   -7.7550 N   0  0  0  0  0
    0.6390   -0.2610   -9.0840 C   0  0  0  0  0
    1.5930   -0.4780  -10.0510 N   0  0  0  0  0
   -0.5990   -0.0460   -9.4270 N   0  0  0  0  0
   -1.9060   -0.7430   -1.9090 C   0  0  0  0  0
   -1.7850   -1.8860   -1.2150 O   0  0  0  0  0
   -2.8710   -0.5640   -2.6140 O   0  0  0  0  0
    0.5050   -0.4630    5.4700 C   0  0  0  0  0
    1.5360   -1.0840    5.6410 O   0  0  0  0  0
   -0.1290    0.0910    6.5210 N   0  0  0  0  0
   -0.1630    0.4220    9.8920 H   0  0  0  0  0
   -0.5120    1.6630    8.6650 H   0  0  0  0  0
   -1.5520    0.2240    8.7960 H   0  0  0  0  0
    1.8150    1.4470    7.7840 H   0  0  0  0  0
    2.1640    0.2050    9.0110 H   0  0  0  0  0
    2.4340   -0.1450    7.2870 H   0  0  0  0  0
   -0.6830   -2.0110    8.0980 H   0  0  0  0  0
    0.9750   -2.1650    7.4700 H   0  0  0  0  0
    0.7050   -1.8130    9.1940 H   0  0  0  0  0
   -2.0090   -0.0910    3.6470 H   0  0  0  0  0
   -1.4490    1.0360    4.9090 H   0  0  0  0  0
   -1.7250    2.0640    2.5810 H   0  0  0  0  0
   -0.1140    2.2770    3.3140 H   0  0  0  0  0
    1.5170   -1.5370    3.4170 H   0  0  0  0  0
   -0.0940   -1.7520    2.6870 H   0  0  0  0  0
    1.2370   -0.5140    1.0910 H   0  0  0  0  0
    1.7970    0.6140    2.3530 H   0  0  0  0  0
    0.6690   -0.9070   -2.7390 H   0  0  0  0  0
    1.0280    2.1750   -2.9030 H   0  0  0  0  0
    0.5590   -0.3080   -0.3390 H   0  0  0  0  0
   -1.2880    1.2980   -1.9540 H   0  0  0  0  0
   -1.2030   -0.6280   -4.3400 H   0  0  0  0  0
   -0.8790    1.1200   -4.4130 H   0  0  0  0  0
    1.4010    0.6620   -5.2700 H   0  0  0  0  0
    1.0780   -1.0860   -5.1970 H   0  0  0  0  0
   -0.7940   -0.8060   -6.7980 H   0  0  0  0  0
   -0.4710    0.9420   -6.8710 H   0  0  0  0  0
    1.9150   -0.4310   -7.5000 H   0  0  0  0  0
    1.3430   -0.4710  -10.9880 H   0  0  0  0  0
    2.5150   -0.6380   -9.7950 H   0  0  0  0  0
   -0.8480   -0.0400  -10.3640 H   0  0  0  0  0
   -2.4700   -2.5650   -1.2800 H   0  0  0  0  0
   -0.9130    0.6440    6.3770 H   0  0  0  0  0
  1  2  1  0  0  0
  1 31  1  0  0  0
  1 32  1  0  0  0
  1 33  1  0  0  0
  2  3  1  0  0  0
  2  4  1  0  0  0
  2 30  1  0  0  0
  3 34  1  0  0  0
  3 35  1  0  0  0
  3 36  1  0  0  0
  4 37  1  0  0  0
  4 38  1  0  0  0
  4 39  1  0  0  0
  5  6  1  0  0  0
  5  8  1  0  0  0
  5 28  1  0  0  0
  6  7  1  0  0  0
  6 40  1  0  0  0
  6 41  1  0  0  0
  7 12  1  0  0  0
  7 42  1  0  0  0
  7 43  1  0  0  0
  8  9  1  0  0  0
  8 44  1  0  0  0
  8 45  1  0  0  0
  9 12  1  0  0  0
  9 46  1  0  0  0
  9 47  1  0  0  0
 10 11  2  0  0  0
 10 12  1  0  0  0
 10 15  1  0  0  0
 13 14  1  0  0  0
 13 16  1  0  0  0
 13 18  1  0  0  0
 13 48  1  0  0  0
 14 17  2  0  0  0
 14 49  1  0  0  0
 15 16  1  0  0  0
 15 50  1  0  0  0
 16 25  1  0  0  0
 16 51  1  0  0  0
 18 19  1  0  0  0
 18 52  1  0  0  0
 18 53  1  0  0  0
 19 20  1  0  0  0
 19 54  1  0  0  0
 19 55  1  0  0  0
 20 21  1  0  0  0
 20 56  1  0  0  0
 20 57  1  0  0  0
 21 22  1  0  0  0
 21 58  1  0  0  0
 22 23  1  0  0  0
 22 24  2  0  0  0
 23 59  1  0  0  0
 23 60  1  0  0  0
 24 61  1  0  0  0
 25 26  1  0  0  0
 25 27  2  0  0  0
 26 62  1  0  0  0
 28 29  2  0  0  0
 28 30  1  0  0  0
 30 63  1  0  0  0
M  END
$$$$
