1NJ
  CCTOOLS-0404251013

 70 72  0  0  1  0  0  0  0  0999 V2000
   -1.3950   -0.0150   -0.1480 O   0  0  0  0  0
   -2.4220   -0.6310   -0.3530 C   0  0  0  0  0
   -3.5750    0.0330   -0.5640 N   0  0  0  0  0
   -3.6100    1.4230   -0.4520 C   0  0  0  0  0
   -4.4340    2.1660   -1.2910 C   0  0  0  0  0
   -4.4700    3.5390   -1.1830 C   0  0  0  0  0
   -3.6800    4.1840   -0.2300 C   0  0  0  0  0
   -3.7170    5.6580   -0.1110 C   0  0  0  0  0
   -2.9360    6.2930    0.8300 N   0  0  0  0  0
   -4.4890    6.3560   -0.8960 N   0  0  0  0  0
   -2.8540    3.4350    0.6110 C   0  0  0  0  0
   -2.8260    2.0620    0.5020 C   0  0  0  0  0
   -2.4050   -2.1110   -0.3760 C   0  0  0  0  0
   -3.5280   -2.7790   -0.6050 N   0  0  0  0  0
   -3.5560   -4.0980   -0.6350 C   0  0  0  0  0
   -4.7290   -4.7350   -0.8740 O   0  0  0  0  0
   -5.8810   -3.9160   -1.0820 C   0  0  0  0  0
   -2.3990   -4.8480   -0.4250 C   0  0  0  0  0
   -1.2060   -4.1990   -0.1830 C   0  0  0  0  0
   -1.2000   -2.7980   -0.1610 C   0  0  0  0  0
    0.0530   -2.0560    0.0940 C   0  0  0  0  0
    1.1070   -2.1300   -0.8150 C   0  0  0  0  0
    2.2750   -1.4390   -0.5790 C   0  0  0  0  0
    0.1830   -1.2660    1.2550 C   0  0  0  0  0
   -0.9310   -1.1790    2.2190 C   0  0  0  0  0
   -1.9620   -1.7870    2.0130 O   0  0  0  0  0
   -0.8040   -0.4230    3.3270 O   0  0  0  0  0
    1.3650   -0.5710    1.4880 C   0  0  0  0  0
    2.4130   -0.6590    0.5730 C   0  0  0  0  0
    3.6690    0.0790    0.8170 C   0  0  0  0  0
    3.7890    0.7630    1.8160 O   0  0  0  0  0
    4.6830   -0.0050   -0.0660 N   0  0  0  0  0
    5.9290    0.7260    0.1760 C   0  0  0  0  0
    5.7890    2.1580   -0.3440 C   0  0  0  0  0
    5.5830    2.1340   -1.7580 O   0  0  0  0  0
    7.0800    0.0300   -0.5520 C   0  0  0  0  0
    8.3510    0.8710   -0.4210 C   0  0  0  0  0
    7.3150   -1.3490    0.0680 C   0  0  0  0  0
    6.7250   -0.1300   -2.0320 C   0  0  0  0  0
   -4.3810   -0.4560   -0.7940 H   0  0  0  0  0
   -5.0460    1.6670   -2.0280 H   0  0  0  0  0
   -5.1100    4.1160   -1.8340 H   0  0  0  0  0
   -2.3620    5.7740    1.4140 H   0  0  0  0  0
   -2.9600    7.2600    0.9080 H   0  0  0  0  0
   -4.5130    7.3220   -0.8180 H   0  0  0  0  0
   -2.2410    3.9320    1.3480 H   0  0  0  0  0
   -2.1900    1.4820    1.1550 H   0  0  0  0  0
   -6.0560   -3.3030   -0.1980 H   0  0  0  0  0
   -5.7180   -3.2710   -1.9450 H   0  0  0  0  0
   -6.7500   -4.5500   -1.2610 H   0  0  0  0  0
   -2.4370   -5.9270   -0.4490 H   0  0  0  0  0
   -0.2960   -4.7580   -0.0170 H   0  0  0  0  0
    1.0070   -2.7310   -1.7070 H   0  0  0  0  0
    3.0880   -1.5010   -1.2870 H   0  0  0  0  0
   -1.5610   -0.3960    3.9290 H   0  0  0  0  0
    1.4710    0.0360    2.3750 H   0  0  0  0  0
    4.5890   -0.5500   -0.8630 H   0  0  0  0  0
    6.1360    0.7470    1.2460 H   0  0  0  0  0
    4.9380    2.6390    0.1390 H   0  0  0  0  0
    6.6980    2.7170   -0.1190 H   0  0  0  0  0
    5.4850    3.0090   -2.1570 H   0  0  0  0  0
    8.6040    0.9850    0.6330 H   0  0  0  0  0
    9.1710    0.3750   -0.9400 H   0  0  0  0  0
    8.1840    1.8540   -0.8620 H   0  0  0  0  0
    6.4100   -1.9490   -0.0260 H   0  0  0  0  0
    8.1350   -1.8460   -0.4510 H   0  0  0  0  0
    7.5680   -1.2350    1.1220 H   0  0  0  0  0
    6.7820    0.8400   -2.5260 H   0  0  0  0  0
    7.4270   -0.8190   -2.5010 H   0  0  0  0  0
    5.7130   -0.5260   -2.1220 H   0  0  0  0  0
  2  3  1  0  0  0
  2  1  2  0  0  0
  3  4  1  0  0  0
  3 40  1  0  0  0
  4  5  1  0  0  0
  5  6  2  0  0  0
  5 41  1  0  0  0
  6 42  1  0  0  0
  7  6  1  0  0  0
  7  8  1  0  0  0
  8  9  1  0  0  0
  9 43  1  0  0  0
  9 44  1  0  0  0
 10  8  2  0  0  0
 10 45  1  0  0  0
 11  7  2  0  0  0
 11 46  1  0  0  0
 12  4  2  0  0  0
 12 11  1  0  0  0
 12 47  1  0  0  0
 13  2  1  0  0  0
 14 13  1  0  0  0
 15 14  2  0  0  0
 16 15  1  0  0  0
 16 17  1  0  0  0
 17 48  1  0  0  0
 17 49  1  0  0  0
 17 50  1  0  0  0
 18 19  2  0  0  0
 18 15  1  0  0  0
 18 51  1  0  0  0
 19 20  1  0  0  0
 19 52  1  0  0  0
 20 21  1  0  0  0
 20 13  2  0  0  0
 21 22  2  0  0  0
 22 23  1  0  0  0
 22 53  1  0  0  0
 23 54  1  0  0  0
 24 28  2  0  0  0
 24 21  1  0  0  0
 25 24  1  0  0  0
 25 27  1  0  0  0
 26 25  2  0  0  0
 27 55  1  0  0  0
 28 29  1  0  0  0
 28 56  1  0  0  0
 29 30  1  0  0  0
 29 23  2  0  0  0
 30 31  2  0  0  0
 32 30  1  0  0  0
 32 57  1  0  0  0
 33 32  1  0  0  0
 33 36  1  0  0  0
 33 58  1  0  0  0
 34 33  1  0  0  0
 34 59  1  0  0  0
 34 60  1  0  0  0
 35 34  1  0  0  0
 35 61  1  0  0  0
 36 39  1  0  0  0
 36 37  1  0  0  0
 37 62  1  0  0  0
 37 63  1  0  0  0
 37 64  1  0  0  0
 38 36  1  0  0  0
 38 65  1  0  0  0
 38 66  1  0  0  0
 38 67  1  0  0  0
 39 68  1  0  0  0
 39 69  1  0  0  0
 39 70  1  0  0  0
M  END
$$$$
