312
  CCTOOLS-0919241041

 55 58  0  0  1  0  0  0  0  0999 V2000
    5.9650   -0.2850   -0.0120 C   0  0  0  0  0
    5.7760   -1.4310    0.7700 C   0  0  0  0  0
    4.5170   -1.8680    1.0670 C   0  0  0  0  0
    3.4090   -1.1750    0.5940 C   0  0  0  0  0
    3.5790   -0.0210   -0.1930 C   0  0  0  0  0
    4.8680    0.4210   -0.4940 C   0  0  0  0  0
    7.3340    0.1770   -0.3250 C   0  0  0  0  0
    8.3860   -0.4980    0.1360 N   0  0  0  0  0
    7.5150    1.2670   -1.0680 N   0  3  0  0  0
    2.0470   -1.3580    0.7180 N   0  0  0  0  0
    2.3420    0.4340   -0.5110 N   0  0  0  0  0
    1.4360   -0.3460    0.0270 C   0  0  0  0  0
   -0.0250   -0.1640   -0.0980 C   0  0  0  0  0
   -0.5790    1.1160   -0.0370 C   0  0  0  0  0
   -1.9430    1.2870   -0.1550 C   0  0  0  0  0
   -2.5330    2.6730   -0.0890 C   0  0  0  0  0
   -1.9600    3.5160   -1.1990 C   0  0  0  0  0
   -1.1480    3.0360   -1.9720 O   0  0  0  0  0
   -2.3080    4.6780   -1.3240 O   0  5  0  0  0
   -2.1930    3.3080    1.2610 C   0  0  0  0  0
   -2.8840    4.6420    1.3770 C   0  0  0  0  0
   -3.6150    5.0660    0.4220 O   0  0  0  0  0
   -2.7370    5.3470    2.4290 O   0  5  0  0  0
   -2.7720    0.1960   -0.3330 C   0  0  0  0  0
   -2.2370   -1.0880   -0.3960 C   0  0  0  0  0
   -0.8580   -1.2740   -0.2720 C   0  0  0  0  0
   -0.3290   -2.5220   -0.3320 O   0  5  0  0  0
   -3.1300   -2.2570   -0.5870 C   0  0  0  0  0
   -3.2460   -3.2240    0.4170 C   0  0  0  0  0
   -4.0830   -4.3120    0.2300 C   0  0  0  0  0
   -4.7960   -4.4430   -0.9460 C   0  0  0  0  0
   -4.6790   -3.4910   -1.9440 C   0  0  0  0  0
   -3.8500   -2.4020   -1.7710 C   0  0  0  0  0
   -2.5450   -3.0930    1.5730 O   0  0  0  0  0
   -2.8770   -4.2200    2.3870 C   0  0  0  0  0
    6.6330   -1.9740    1.1410 H   0  0  0  0  0
    4.3820   -2.7530    1.6700 H   0  0  0  0  0
    5.0130    1.3060   -1.0970 H   0  0  0  0  0
    9.2840   -0.1950   -0.0690 H   0  0  0  0  0
    8.2530   -1.2920    0.6780 H   0  0  0  0  0
    6.7490    1.7580   -1.4040 H   0  0  0  0  0
    8.4140    1.5700   -1.2740 H   0  0  0  0  0
    1.6050   -2.0720    1.2040 H   0  0  0  0  0
    0.0620    1.9750    0.1020 H   0  0  0  0  0
   -3.6150    2.6130   -0.2000 H   0  0  0  0  0
   -2.5300    2.6540    2.0650 H   0  0  0  0  0
   -1.1150    3.4490    1.3350 H   0  0  0  0  0
   -3.8390    0.3400   -0.4250 H   0  0  0  0  0
   -4.1780   -5.0590    1.0050 H   0  0  0  0  0
   -5.4470   -5.2940   -1.0890 H   0  0  0  0  0
   -5.2390   -3.6010   -2.8610 H   0  0  0  0  0
   -3.7610   -1.6600   -2.5510 H   0  0  0  0  0
   -2.3360   -4.1590    3.3310 H   0  0  0  0  0
   -3.9500   -4.2230    2.5830 H   0  0  0  0  0
   -2.6000   -5.1370    1.8680 H   0  0  0  0  0
  1  2  2  0  0  0
  1  6  1  0  0  0
  1  7  1  0  0  0
  2  3  1  0  0  0
  2 36  1  0  0  0
  3  4  2  0  0  0
  3 37  1  0  0  0
  4  5  1  0  0  0
  4 10  1  0  0  0
  5  6  2  0  0  0
  5 11  1  0  0  0
  6 38  1  0  0  0
  7  8  1  0  0  0
  7  9  2  0  0  0
  8 39  1  0  0  0
  8 40  1  0  0  0
  9 41  1  0  0  0
  9 42  1  0  0  0
 10 12  1  0  0  0
 10 43  1  0  0  0
 11 12  2  0  0  0
 12 13  1  0  0  0
 13 14  2  0  0  0
 13 26  1  0  0  0
 14 15  1  0  0  0
 14 44  1  0  0  0
 15 16  1  0  0  0
 15 24  2  0  0  0
 16 17  1  0  0  0
 16 20  1  0  0  0
 16 45  1  0  0  0
 17 18  2  0  0  0
 17 19  1  0  0  0
 20 21  1  0  0  0
 20 46  1  0  0  0
 20 47  1  0  0  0
 21 22  2  0  0  0
 21 23  1  0  0  0
 24 25  1  0  0  0
 24 48  1  0  0  0
 25 26  2  0  0  0
 25 28  1  0  0  0
 26 27  1  0  0  0
 28 29  2  0  0  0
 28 33  1  0  0  0
 29 30  1  0  0  0
 29 34  1  0  0  0
 30 31  2  0  0  0
 30 49  1  0  0  0
 31 32  1  0  0  0
 31 50  1  0  0  0
 32 33  2  0  0  0
 32 51  1  0  0  0
 33 52  1  0  0  0
 34 35  1  0  0  0
 35 53  1  0  0  0
 35 54  1  0  0  0
 35 55  1  0  0  0
M  CHG  1   9   1
M  CHG  1  19  -1
M  CHG  1  23  -1
M  CHG  1  27  -1
M  END
$$$$
