32U
  CCTOOLS-0919241041

 57 59  0  0  1  0  0  0  0  0999 V2000
   -4.1530   -1.9120    0.7480 N   0  0  0  0  0
   -3.8030   -0.5800    0.2380 C   0  0  0  0  0
   -2.3530   -0.5640   -0.1720 C   0  0  0  0  0
   -1.7760   -1.6060   -0.4000 O   0  0  0  0  0
   -4.6790   -0.2510   -0.9730 C   0  0  0  0  0
   -6.1180   -0.1460   -0.5380 C   0  0  0  0  0
   -6.9250   -1.2680   -0.5440 C   0  0  0  0  0
   -6.6290    1.0710   -0.1290 C   0  0  0  0  0
   -8.2450   -1.1720   -0.1450 C   0  0  0  0  0
   -7.9500    1.1690    0.2660 C   0  0  0  0  0
   -8.7580    0.0470    0.2600 C   0  0  0  0  0
   -1.6970    0.6080   -0.2860 N   0  0  0  0  0
   -0.2890    0.7680   -0.6750 C   0  0  0  0  0
    0.5980    0.0360    0.2990 C   0  0  0  0  0
    0.1090   -0.5650    1.2320 O   0  0  0  0  0
    0.0270    2.2780   -0.6440 C   0  0  0  0  0
   -1.0620    2.8410    0.3080 C   0  0  0  0  0
   -2.2760    1.9430   -0.0460 C   0  0  0  0  0
    1.9360    0.0480    0.1330 N   0  0  0  0  0
    2.7980   -0.6640    1.0790 C   0  0  0  0  0
    4.2390   -0.4940    0.6720 C   0  0  0  0  0
    4.8210   -1.4020   -0.1950 C   0  0  0  0  0
    6.1400   -1.2520   -0.5720 C   0  0  0  0  0
    6.8860   -0.1820   -0.0770 C   0  0  0  0  0
    8.3010   -0.0150   -0.4780 C   0  0  0  0  0
    9.0390   -1.0820   -0.7760 N   0  3  0  0  0
    8.8360    1.2030   -0.5400 N   0  0  0  0  0
    6.2930    0.7300    0.7960 C   0  0  0  0  0
    4.9720    0.5720    1.1610 C   0  0  0  0  0
   -4.0090   -2.6190    0.0420 H   0  0  0  0  0
   -3.6340   -2.1260    1.5860 H   0  0  0  0  0
   -3.9680    0.1630    1.0180 H   0  0  0  0  0
   -4.3600    0.6970   -1.4050 H   0  0  0  0  0
   -4.5810   -1.0410   -1.7180 H   0  0  0  0  0
   -6.5250   -2.2200   -0.8590 H   0  0  0  0  0
   -5.9970    1.9470   -0.1200 H   0  0  0  0  0
   -8.8760   -2.0480   -0.1490 H   0  0  0  0  0
   -8.3510    2.1210    0.5820 H   0  0  0  0  0
   -9.7890    0.1220    0.5710 H   0  0  0  0  0
   -0.1360    0.3780   -1.6810 H   0  0  0  0  0
    1.0230    2.4530   -0.2370 H   0  0  0  0  0
   -0.0670    2.7150   -1.6380 H   0  0  0  0  0
   -0.7710    2.7170    1.3510 H   0  0  0  0  0
   -1.2730    3.8870    0.0850 H   0  0  0  0  0
   -2.7730    2.3130   -0.9420 H   0  0  0  0  0
   -2.9760    1.9050    0.7890 H   0  0  0  0  0
    2.3270    0.5290   -0.6130 H   0  0  0  0  0
    2.6530   -0.2570    2.0800 H   0  0  0  0  0
    2.5430   -1.7230    1.0770 H   0  0  0  0  0
    4.2430   -2.2300   -0.5770 H   0  0  0  0  0
    6.5940   -1.9610   -1.2480 H   0  0  0  0  0
    9.9670   -0.9720   -1.0380 H   0  0  0  0  0
    8.2980    1.9810   -0.3230 H   0  0  0  0  0
    9.7630    1.3130   -0.8030 H   0  0  0  0  0
    6.8660    1.5610    1.1830 H   0  0  0  0  0
    4.5100    1.2800    1.8340 H   0  0  0  0  0
    8.6500   -1.9690   -0.7300 H   0  0  0  0  0
  1  2  1  0  0  0
  1 30  1  0  0  0
  1 31  1  0  0  0
  2  5  1  0  0  0
  2 32  1  0  0  0
  3  4  2  0  0  0
  3  2  1  0  0  0
  5  6  1  0  0  0
  5 33  1  0  0  0
  5 34  1  0  0  0
  6  8  2  0  0  0
  7  9  2  0  0  0
  7  6  1  0  0  0
  7 35  1  0  0  0
  8 10  1  0  0  0
  8 36  1  0  0  0
  9 11  1  0  0  0
  9 37  1  0  0  0
 10 38  1  0  0  0
 11 10  2  0  0  0
 11 39  1  0  0  0
 12  3  1  0  0  0
 13 12  1  0  0  0
 13 40  1  0  0  0
 14 19  1  0  0  0
 14 13  1  0  0  0
 15 14  2  0  0  0
 16 17  1  0  0  0
 16 13  1  0  0  0
 16 41  1  0  0  0
 16 42  1  0  0  0
 17 18  1  0  0  0
 17 43  1  0  0  0
 17 44  1  0  0  0
 18 12  1  0  0  0
 18 45  1  0  0  0
 18 46  1  0  0  0
 19 47  1  0  0  0
 20 19  1  0  0  0
 20 21  1  0  0  0
 20 48  1  0  0  0
 20 49  1  0  0  0
 21 29  2  0  0  0
 21 22  1  0  0  0
 22 23  2  0  0  0
 22 50  1  0  0  0
 23 24  1  0  0  0
 23 51  1  0  0  0
 24 25  1  0  0  0
 25 27  1  0  0  0
 25 26  2  0  0  0
 26 52  1  0  0  0
 26 57  1  0  0  0
 27 53  1  0  0  0
 27 54  1  0  0  0
 28 24  2  0  0  0
 28 55  1  0  0  0
 29 28  1  0  0  0
 29 56  1  0  0  0
M  CHG  1  26   1
M  END
$$$$
