334
  CCTOOLS-0919241041

 34 36  0  0  0  0  0  0  0  0999 V2000
   -4.9410   -0.2180   -0.0570 C   0  0  0  0  0
   -4.6290   -1.3720    0.6730 C   0  0  0  0  0
   -3.3360   -1.6470    1.0130 C   0  0  0  0  0
   -2.3150   -0.7820    0.6360 C   0  0  0  0  0
   -2.6110    0.3830   -0.0980 C   0  0  0  0  0
   -3.9340    0.6600   -0.4430 C   0  0  0  0  0
   -6.3460    0.0670   -0.4190 C   0  0  0  0  0
   -7.3120   -0.7730   -0.0510 N   0  0  0  0  0
   -6.6450    1.1640   -1.1130 N   0  3  0  0  0
   -0.9490   -0.7820    0.8230 N   0  0  0  0  0
   -1.4380    1.0280   -0.3160 N   0  0  0  0  0
   -0.4560    0.3440    0.2190 C   0  0  0  0  0
    0.9690    0.7340    0.1820 C   0  0  0  0  0
    1.3360    2.0700    0.3500 C   0  0  0  0  0
    2.6670    2.4280    0.3100 C   0  0  0  0  0
    3.0610    3.8720    0.4860 C   0  0  0  0  0
    3.6430    1.4670    0.1140 C   0  0  0  0  0
    3.2930    0.1390   -0.0490 C   0  0  0  0  0
    1.9590   -0.2370   -0.0160 C   0  0  0  0  0
    1.6140   -1.5400   -0.1750 O   0  5  0  0  0
    4.6360   -1.1650   -0.3170 BR  0  0  0  0  0
   -5.4170   -2.0490    0.9680 H   0  0  0  0  0
   -3.1050   -2.5390    1.5760 H   0  0  0  0  0
   -4.1740    1.5500   -1.0060 H   0  0  0  0  0
   -7.0940   -1.5720    0.4540 H   0  0  0  0  0
   -8.2340   -0.5860   -0.2890 H   0  0  0  0  0
   -7.5670    1.3510   -1.3510 H   0  0  0  0  0
   -5.9420    1.7760   -1.3810 H   0  0  0  0  0
   -0.4330   -1.4550    1.2940 H   0  0  0  0  0
    0.5780    2.8230    0.5040 H   0  0  0  0  0
    3.0910    4.3620   -0.4870 H   0  0  0  0  0
    2.3300    4.3730    1.1220 H   0  0  0  0  0
    4.0450    3.9260    0.9510 H   0  0  0  0  0
    4.6840    1.7550    0.0880 H   0  0  0  0  0
  1  2  2  0  0  0
  1  6  1  0  0  0
  1  7  1  0  0  0
  2  3  1  0  0  0
  2 22  1  0  0  0
  3  4  2  0  0  0
  3 23  1  0  0  0
  4  5  1  0  0  0
  4 10  1  0  0  0
  5  6  2  0  0  0
  5 11  1  0  0  0
  6 24  1  0  0  0
  7  8  1  0  0  0
  7  9  2  0  0  0
  8 25  1  0  0  0
  8 26  1  0  0  0
  9 27  1  0  0  0
  9 28  1  0  0  0
 10 12  1  0  0  0
 10 29  1  0  0  0
 11 12  2  0  0  0
 12 13  1  0  0  0
 13 14  2  0  0  0
 13 19  1  0  0  0
 14 15  1  0  0  0
 14 30  1  0  0  0
 15 16  1  0  0  0
 15 17  2  0  0  0
 16 31  1  0  0  0
 16 32  1  0  0  0
 16 33  1  0  0  0
 17 18  1  0  0  0
 17 34  1  0  0  0
 18 19  2  0  0  0
 18 21  1  0  0  0
 19 20  1  0  0  0
M  CHG  1   9   1
M  CHG  1  20  -1
M  END
$$$$
