3YH
  CCTOOLS-0919241028

 52 55  0  0  0  0  0  0  0  0999 V2000
   -7.9510   -1.5070    1.1840 N   0  0  0  0  0
   -7.1040   -2.2980    0.5880 C   0  0  0  0  0
   -7.3790   -3.6430    0.4770 N   0  0  0  0  0
   -5.8460   -1.7510    0.0310 C   0  0  0  0  0
   -4.9410   -2.5950   -0.6130 C   0  0  0  0  0
   -3.7680   -2.0860   -1.1330 C   0  0  0  0  0
   -3.4830   -0.7390   -1.0200 C   0  0  0  0  0
   -4.3800    0.1150   -0.3800 C   0  0  0  0  0
   -5.5670   -0.3910    0.1420 C   0  0  0  0  0
   -4.0730    1.5610   -0.2590 C   0  0  0  0  0
   -2.7470    2.1840   -0.0650 C   0  0  0  0  0
   -1.4330    1.5300    0.0540 C   0  0  0  0  0
   -1.3490    0.3180   -0.0060 O   0  0  0  0  0
   -0.3230    2.2740    0.2300 N   0  0  0  0  0
    0.9080    1.6510    0.4540 C   0  0  0  0  0
    2.0770    2.2310   -0.0250 C   0  0  0  0  0
    3.2920    1.6180    0.1950 C   0  0  0  0  0
    3.3480    0.4160    0.8980 C   0  0  0  0  0
    2.1740   -0.1640    1.3780 C   0  0  0  0  0
    0.9620    0.4560    1.1610 C   0  0  0  0  0
    4.6540   -0.2450    1.1350 C   0  0  0  0  0
    5.1480   -0.3720    2.4320 C   0  0  0  0  0
    6.3640   -0.9890    2.6470 C   0  0  0  0  0
    7.0920   -1.4810    1.5790 C   0  0  0  0  0
    6.6060   -1.3570    0.2890 C   0  0  0  0  0
    5.3890   -0.7480    0.0630 C   0  0  0  0  0
    4.7680   -0.5980   -1.5790 S   0  0  0  0  0
    4.4250    0.7690   -1.7560 O   0  0  0  0  0
    5.6870   -1.2840   -2.4200 O   0  0  0  0  0
    3.3490   -1.4490   -1.6460 N   0  0  0  0  0
   -4.9160    2.5610   -0.3080 N   0  0  0  0  0
   -4.3650    3.6260   -0.1800 O   0  0  0  0  0
   -3.0430    3.5240   -0.0240 C   0  0  0  0  0
   -7.7570   -0.5600    1.2620 H   0  0  0  0  0
   -8.2030   -4.0020    0.8420 H   0  0  0  0  0
   -6.7490   -4.2320    0.0330 H   0  0  0  0  0
   -5.1580   -3.6490   -0.7040 H   0  0  0  0  0
   -3.0700   -2.7430   -1.6300 H   0  0  0  0  0
   -2.5630   -0.3470   -1.4280 H   0  0  0  0  0
   -6.2660    0.2680    0.6360 H   0  0  0  0  0
   -0.3780    3.2420    0.2010 H   0  0  0  0  0
    2.0330    3.1620   -0.5710 H   0  0  0  0  0
    4.2000    2.0690   -0.1780 H   0  0  0  0  0
    2.2160   -1.0950    1.9230 H   0  0  0  0  0
    0.0530    0.0090    1.5360 H   0  0  0  0  0
    4.5810    0.0120    3.2670 H   0  0  0  0  0
    6.7490   -1.0880    3.6520 H   0  0  0  0  0
    8.0430   -1.9630    1.7510 H   0  0  0  0  0
    7.1780   -1.7430   -0.5420 H   0  0  0  0  0
    3.0200   -1.9060   -0.8570 H   0  0  0  0  0
    2.8460   -1.4890   -2.4750 H   0  0  0  0  0
   -2.3430    4.3360    0.1060 H   0  0  0  0  0
  1  2  2  0  0  0
  1 34  1  0  0  0
  2  3  1  0  0  0
  2  4  1  0  0  0
  3 35  1  0  0  0
  3 36  1  0  0  0
  4  9  1  0  0  0
  5  4  2  0  0  0
  5  6  1  0  0  0
  5 37  1  0  0  0
  6  7  2  0  0  0
  6 38  1  0  0  0
  7  8  1  0  0  0
  7 39  1  0  0  0
  8 10  1  0  0  0
  9  8  2  0  0  0
  9 40  1  0  0  0
 10 11  1  0  0  0
 11 33  2  0  0  0
 11 12  1  0  0  0
 12 14  1  0  0  0
 13 12  2  0  0  0
 14 15  1  0  0  0
 14 41  1  0  0  0
 15 16  2  0  0  0
 15 20  1  0  0  0
 16 17  1  0  0  0
 16 42  1  0  0  0
 17 18  2  0  0  0
 17 43  1  0  0  0
 18 21  1  0  0  0
 19 18  1  0  0  0
 19 44  1  0  0  0
 20 19  2  0  0  0
 20 45  1  0  0  0
 21 26  1  0  0  0
 22 21  2  0  0  0
 22 23  1  0  0  0
 22 46  1  0  0  0
 23 24  2  0  0  0
 23 47  1  0  0  0
 24 25  1  0  0  0
 24 48  1  0  0  0
 25 49  1  0  0  0
 26 25  2  0  0  0
 26 27  1  0  0  0
 27 29  2  0  0  0
 28 27  2  0  0  0
 30 27  1  0  0  0
 30 50  1  0  0  0
 30 51  1  0  0  0
 31 10  2  0  0  0
 31 32  1  0  0  0
 32 33  1  0  0  0
 33 52  1  0  0  0
M  END
$$$$
