45U
  CCTOOLS-0919241029

 55 57  0  0  1  0  0  0  0  0999 V2000
    2.3480   -0.6940    0.6680 O   0  0  0  0  0
    2.7620    0.4100    0.3830 C   0  0  0  0  0
    4.2080    0.5960    0.0020 C   0  0  0  0  0
    4.8800   -0.6640    0.0500 O   0  0  0  0  0
    6.2650   -0.5980   -0.2960 C   0  0  0  0  0
    6.7240   -1.9230   -0.9390 C   0  0  0  0  0
    8.1510   -2.1880   -0.4280 C   0  0  0  0  0
    8.5090   -1.0150    0.5080 C   0  0  0  0  0
    7.1370   -0.4720    0.9770 C   0  0  0  0  0
    1.9280    1.4680    0.4020 N   0  0  0  0  0
    0.5000    1.4280    0.7480 C   0  0  0  0  0
   -0.2290    0.5040   -0.1930 C   0  0  0  0  0
    0.3780   -0.0690   -1.0720 O   0  0  0  0  0
   -0.0460    2.8640    0.6070 C   0  0  0  0  0
    0.9710    3.5300   -0.3560 C   0  0  0  0  0
    2.2990    2.8600    0.0850 C   0  0  0  0  0
   -1.5570    0.3160   -0.0580 N   0  0  0  0  0
   -2.2660   -0.5820   -0.9730 C   0  0  0  0  0
   -3.7280   -0.6170   -0.6100 C   0  0  0  0  0
   -4.6030    0.2870   -1.1870 C   0  0  0  0  0
   -5.9440    0.2570   -0.8640 C   0  0  0  0  0
   -6.4150   -0.6800    0.0560 C   0  0  0  0  0
   -7.8520   -0.7130    0.4130 C   0  0  0  0  0
   -8.2890   -1.5890    1.2720 N   0  0  0  0  0
   -8.7260    0.1820   -0.1640 N   0  0  0  0  0
   -5.5280   -1.5840    0.6380 C   0  0  0  0  0
   -4.1900   -1.5480    0.3020 C   0  0  0  0  0
    4.2680    1.0010   -1.0080 H   0  0  0  0  0
    4.6820    1.2870    0.6990 H   0  0  0  0  0
    6.4490    0.2370   -0.9720 H   0  0  0  0  0
    6.0620   -2.7350   -0.6360 H   0  0  0  0  0
    6.7280   -1.8300   -2.0250 H   0  0  0  0  0
    8.1820   -3.1280    0.1240 H   0  0  0  0  0
    8.8470   -2.2250   -1.2660 H   0  0  0  0  0
    9.0900   -1.3700    1.3590 H   0  0  0  0  0
    9.0600   -0.2480   -0.0360 H   0  0  0  0  0
    7.2190    0.5700    1.2870 H   0  0  0  0  0
    6.7340   -1.0840    1.7840 H   0  0  0  0  0
    0.3770    1.0840    1.7750 H   0  0  0  0  0
   -1.0430    2.8540    0.1670 H   0  0  0  0  0
   -0.0540    3.3730    1.5710 H   0  0  0  0  0
    0.7380    3.2960   -1.3950 H   0  0  0  0  0
    1.0100    4.6090   -0.1990 H   0  0  0  0  0
    2.7030    3.3600    0.9650 H   0  0  0  0  0
    3.0230    2.8800   -0.7290 H   0  0  0  0  0
   -2.0430    0.7750    0.6450 H   0  0  0  0  0
   -2.1540   -0.2220   -1.9960 H   0  0  0  0  0
   -1.8480   -1.5860   -0.8940 H   0  0  0  0  0
   -4.2360    1.0150   -1.8960 H   0  0  0  0  0
   -6.6260    0.9600   -1.3180 H   0  0  0  0  0
   -9.2300   -1.6110    1.5060 H   0  0  0  0  0
   -8.4010    0.8340   -0.8040 H   0  0  0  0  0
   -9.6670    0.1600    0.0690 H   0  0  0  0  0
   -5.8870   -2.3120    1.3510 H   0  0  0  0  0
   -3.5020   -2.2480    0.7520 H   0  0  0  0  0
  2  1  2  0  0  0
  2  3  1  0  0  0
  3  4  1  0  0  0
  3 28  1  0  0  0
  3 29  1  0  0  0
  4  5  1  0  0  0
  5  6  1  0  0  0
  5 30  1  0  0  0
  6  7  1  0  0  0
  6 31  1  0  0  0
  6 32  1  0  0  0
  7 33  1  0  0  0
  7 34  1  0  0  0
  8  7  1  0  0  0
  8 35  1  0  0  0
  8 36  1  0  0  0
  9  5  1  0  0  0
  9  8  1  0  0  0
  9 37  1  0  0  0
  9 38  1  0  0  0
 10  2  1  0  0  0
 11 10  1  0  0  0
 11 39  1  0  0  0
 12 11  1  0  0  0
 12 13  2  0  0  0
 14 15  1  0  0  0
 14 11  1  0  0  0
 14 40  1  0  0  0
 14 41  1  0  0  0
 15 16  1  0  0  0
 15 42  1  0  0  0
 15 43  1  0  0  0
 16 10  1  0  0  0
 16 44  1  0  0  0
 16 45  1  0  0  0
 17 12  1  0  0  0
 17 46  1  0  0  0
 18 17  1  0  0  0
 18 19  1  0  0  0
 18 47  1  0  0  0
 18 48  1  0  0  0
 19 20  1  0  0  0
 20 21  2  0  0  0
 20 49  1  0  0  0
 21 50  1  0  0  0
 22 21  1  0  0  0
 22 23  1  0  0  0
 23 24  2  0  0  0
 24 51  1  0  0  0
 25 23  1  0  0  0
 25 52  1  0  0  0
 25 53  1  0  0  0
 26 22  2  0  0  0
 26 54  1  0  0  0
 27 19  2  0  0  0
 27 26  1  0  0  0
 27 55  1  0  0  0
M  END
$$$$
