46U
  CCTOOLS-0919241029

 58 60  0  0  1  0  0  0  0  0999 V2000
    2.0120   -0.6370    0.7390 O   0  0  0  0  0
    2.4270    0.4560    0.4150 C   0  0  0  0  0
    3.8760    0.6310    0.0420 C   0  0  0  0  0
    4.5510   -0.6240    0.1480 O   0  0  0  0  0
    5.9390   -0.5680   -0.1860 C   0  0  0  0  0
    6.3800   -1.9150   -0.7630 C   0  0  0  0  0
    7.8660   -1.8550   -1.1200 C   0  0  0  0  0
    8.6810   -1.5480    0.1380 C   0  0  0  0  0
    8.2400   -0.2020    0.7150 C   0  0  0  0  0
    6.7540   -0.2620    1.0720 C   0  0  0  0  0
    1.5900    1.5120    0.3830 N   0  0  0  0  0
    0.1580    1.4810    0.7150 C   0  0  0  0  0
   -0.5590    0.5220   -0.2000 C   0  0  0  0  0
    0.0590   -0.0820   -1.0500 O   0  0  0  0  0
   -0.3900    2.9090    0.5120 C   0  0  0  0  0
    0.6370    3.5400   -0.4660 C   0  0  0  0  0
    1.9610    2.8910    0.0160 C   0  0  0  0  0
   -1.8880    0.3360   -0.0720 N   0  0  0  0  0
   -2.5850   -0.5960   -0.9610 C   0  0  0  0  0
   -4.0510   -0.6210   -0.6130 C   0  0  0  0  0
   -4.5230   -1.5270    0.3190 C   0  0  0  0  0
   -5.8640   -1.5500    0.6460 C   0  0  0  0  0
   -6.7450   -0.6650    0.0260 C   0  0  0  0  0
   -8.1860   -0.6890    0.3680 C   0  0  0  0  0
   -9.0070    0.1380   -0.2130 N   0  0  0  0  0
   -8.6580   -1.5860    1.3010 N   0  0  0  0  0
   -6.2640    0.2420   -0.9180 C   0  0  0  0  0
   -4.9210    0.2590   -1.2330 C   0  0  0  0  0
    3.9470    0.9970   -0.9820 H   0  0  0  0  0
    4.3410    1.3500    0.7170 H   0  0  0  0  0
    6.1040    0.2150   -0.9260 H   0  0  0  0  0
    6.2150   -2.6990   -0.0240 H   0  0  0  0  0
    5.7990   -2.1340   -1.6600 H   0  0  0  0  0
    8.1800   -2.8150   -1.5310 H   0  0  0  0  0
    8.0310   -1.0720   -1.8600 H   0  0  0  0  0
    8.5160   -2.3320    0.8770 H   0  0  0  0  0
    9.7400   -1.5060   -0.1170 H   0  0  0  0  0
    8.8210    0.0170    1.6110 H   0  0  0  0  0
    8.4050    0.5820   -0.0250 H   0  0  0  0  0
    6.4400    0.6980    1.4830 H   0  0  0  0  0
    6.5890   -1.0450    1.8120 H   0  0  0  0  0
    0.0250    1.1770    1.7530 H   0  0  0  0  0
   -1.3830    2.8810    0.0630 H   0  0  0  0  0
   -0.4080    3.4540    1.4560 H   0  0  0  0  0
    0.4150    3.2640   -1.4970 H   0  0  0  0  0
    0.6710    4.6230   -0.3510 H   0  0  0  0  0
    2.3530    3.4220    0.8830 H   0  0  0  0  0
    2.6950    2.8850   -0.7900 H   0  0  0  0  0
   -2.3820    0.8190    0.6080 H   0  0  0  0  0
   -2.4630   -0.2740   -1.9950 H   0  0  0  0  0
   -2.1670   -1.5960   -0.8410 H   0  0  0  0  0
   -3.8400   -2.2140    0.7960 H   0  0  0  0  0
   -6.2300   -2.2540    1.3780 H   0  0  0  0  0
   -9.9500    0.1230    0.0100 H   0  0  0  0  0
   -8.0460   -2.2030    1.7340 H   0  0  0  0  0
   -9.6010   -1.6020    1.5250 H   0  0  0  0  0
   -6.9420    0.9300   -1.4010 H   0  0  0  0  0
   -4.5480    0.9610   -1.9630 H   0  0  0  0  0
  1  2  2  0  0  0
  2  3  1  0  0  0
  2 11  1  0  0  0
  3  4  1  0  0  0
  3 29  1  0  0  0
  3 30  1  0  0  0
  4  5  1  0  0  0
  5  6  1  0  0  0
  5 10  1  0  0  0
  5 31  1  0  0  0
  6  7  1  0  0  0
  6 32  1  0  0  0
  6 33  1  0  0  0
  7  8  1  0  0  0
  7 34  1  0  0  0
  7 35  1  0  0  0
  8  9  1  0  0  0
  8 36  1  0  0  0
  8 37  1  0  0  0
  9 10  1  0  0  0
  9 38  1  0  0  0
  9 39  1  0  0  0
 10 40  1  0  0  0
 10 41  1  0  0  0
 11 12  1  0  0  0
 11 17  1  0  0  0
 12 15  1  0  0  0
 12 13  1  0  0  0
 12 42  1  0  0  0
 13 14  2  0  0  0
 13 18  1  0  0  0
 15 16  1  0  0  0
 15 43  1  0  0  0
 15 44  1  0  0  0
 16 17  1  0  0  0
 16 45  1  0  0  0
 16 46  1  0  0  0
 17 47  1  0  0  0
 17 48  1  0  0  0
 18 19  1  0  0  0
 18 49  1  0  0  0
 19 20  1  0  0  0
 19 50  1  0  0  0
 19 51  1  0  0  0
 20 28  2  0  0  0
 20 21  1  0  0  0
 21 52  1  0  0  0
 22 21  2  0  0  0
 22 53  1  0  0  0
 23 24  1  0  0  0
 23 22  1  0  0  0
 24 25  2  0  0  0
 24 26  1  0  0  0
 25 54  1  0  0  0
 26 55  1  0  0  0
 26 56  1  0  0  0
 27 23  2  0  0  0
 27 57  1  0  0  0
 28 27  1  0  0  0
 28 58  1  0  0  0
M  END
$$$$
