49U
  CCTOOLS-0919241030

 57 59  0  0  1  0  0  0  0  0999 V2000
    7.9630   -1.3000   -1.3660 C   0  0  0  0  0
    6.6610   -0.4950   -1.1300 C   0  0  0  0  0
    6.4580   -0.5430    0.3980 C   0  0  0  0  0
    7.2100   -1.7870    0.9030 C   0  0  0  0  0
    7.8440   -2.4510   -0.3370 C   0  0  0  0  0
    4.9680   -0.6630    0.7250 C   0  0  0  0  0
    4.2530    0.6310    0.3320 C   0  0  0  0  0
    2.7860    0.5120    0.6540 C   0  0  0  0  0
    2.3540   -0.5070    1.1500 O   0  0  0  0  0
    1.9530    1.5390    0.3910 N   0  0  0  0  0
    0.5070    1.5580    0.6540 C   0  0  0  0  0
   -0.1730    0.4760   -0.1450 C   0  0  0  0  0
    0.4800   -0.2460   -0.8680 O   0  0  0  0  0
   -0.0200    2.9410    0.2190 C   0  0  0  0  0
    1.2530    3.8270    0.2610 C   0  0  0  0  0
    2.3420    2.8290   -0.2070 C   0  0  0  0  0
   -1.5070    0.3080   -0.0530 N   0  0  0  0  0
   -2.1680   -0.7480   -0.8250 C   0  0  0  0  0
   -3.6480   -0.7240   -0.5450 C   0  0  0  0  0
   -4.4850    0.0530   -1.3260 C   0  0  0  0  0
   -5.8420    0.0750   -1.0780 C   0  0  0  0  0
   -6.3680   -0.6790   -0.0290 C   0  0  0  0  0
   -7.8230   -0.6540    0.2470 C   0  0  0  0  0
   -8.3120   -1.3590    1.2270 N   0  0  0  0  0
   -8.6590    0.1140   -0.5340 N   0  0  0  0  0
   -5.5190   -1.4550    0.7580 C   0  0  0  0  0
   -4.1650   -1.4740    0.4970 C   0  0  0  0  0
    8.8390   -0.6860   -1.1590 H   0  0  0  0  0
    7.9990   -1.6920   -2.3820 H   0  0  0  0  0
    5.8220   -0.9680   -1.6420 H   0  0  0  0  0
    6.7820    0.5350   -1.4670 H   0  0  0  0  0
    6.8700    0.3550    0.8590 H   0  0  0  0  0
    7.9880   -1.4920    1.6070 H   0  0  0  0  0
    6.5150   -2.4760    1.3810 H   0  0  0  0  0
    8.8300   -2.8490   -0.0940 H   0  0  0  0  0
    7.1980   -3.2420   -0.7190 H   0  0  0  0  0
    4.8440   -0.8360    1.7950 H   0  0  0  0  0
    4.5400   -1.4980    0.1700 H   0  0  0  0  0
    4.3780    0.8030   -0.7370 H   0  0  0  0  0
    4.6810    1.4650    0.8870 H   0  0  0  0  0
    0.3210    1.4060    1.7170 H   0  0  0  0  0
   -0.4270    2.8990   -0.7920 H   0  0  0  0  0
   -0.7680    3.3080    0.9220 H   0  0  0  0  0
    1.1690    4.6660   -0.4300 H   0  0  0  0  0
    1.4530    4.1760    1.2740 H   0  0  0  0  0
    2.3480    2.7570   -1.2940 H   0  0  0  0  0
    3.3220    3.1370    0.1590 H   0  0  0  0  0
   -2.0300    0.8850    0.5250 H   0  0  0  0  0
   -1.9960   -0.5810   -1.8880 H   0  0  0  0  0
   -1.7600   -1.7170   -0.5380 H   0  0  0  0  0
   -4.0750    0.6400   -2.1350 H   0  0  0  0  0
   -6.4950    0.6780   -1.6920 H   0  0  0  0  0
   -7.7230   -1.9000    1.7760 H   0  0  0  0  0
   -8.2950    0.6390   -1.2640 H   0  0  0  0  0
   -9.6120    0.1300   -0.3530 H   0  0  0  0  0
   -5.9210   -2.0420    1.5720 H   0  0  0  0  0
   -3.5060   -2.0750    1.1060 H   0  0  0  0  0
  1  5  1  0  0  0
  1 28  1  0  0  0
  1 29  1  0  0  0
  2  3  1  0  0  0
  2  1  1  0  0  0
  2 30  1  0  0  0
  2 31  1  0  0  0
  3  6  1  0  0  0
  3  4  1  0  0  0
  3 32  1  0  0  0
  4 33  1  0  0  0
  4 34  1  0  0  0
  5  4  1  0  0  0
  5 35  1  0  0  0
  5 36  1  0  0  0
  6 37  1  0  0  0
  6 38  1  0  0  0
  7  6  1  0  0  0
  7 39  1  0  0  0
  7 40  1  0  0  0
  8  9  2  0  0  0
  8  7  1  0  0  0
 10  8  1  0  0  0
 11 10  1  0  0  0
 11 41  1  0  0  0
 12 13  2  0  0  0
 12 11  1  0  0  0
 14 15  1  0  0  0
 14 11  1  0  0  0
 14 42  1  0  0  0
 14 43  1  0  0  0
 15 16  1  0  0  0
 15 44  1  0  0  0
 15 45  1  0  0  0
 16 10  1  0  0  0
 16 46  1  0  0  0
 16 47  1  0  0  0
 17 12  1  0  0  0
 17 48  1  0  0  0
 18 17  1  0  0  0
 18 19  1  0  0  0
 18 49  1  0  0  0
 18 50  1  0  0  0
 19 20  1  0  0  0
 20 21  2  0  0  0
 20 51  1  0  0  0
 21 52  1  0  0  0
 22 21  1  0  0  0
 22 23  1  0  0  0
 23 24  2  0  0  0
 24 53  1  0  0  0
 25 23  1  0  0  0
 25 54  1  0  0  0
 25 55  1  0  0  0
 26 22  2  0  0  0
 26 56  1  0  0  0
 27 19  2  0  0  0
 27 26  1  0  0  0
 27 57  1  0  0  0
M  END
$$$$
