50U
  CCTOOLS-0919241034

 60 62  0  0  1  0  0  0  0  0999 V2000
   -6.0960   -0.6080   -0.3780 C   0  0  0  0  0
   -6.2960   -0.2370    1.0930 C   0  0  0  0  0
   -7.7900   -0.0740    1.3790 C   0  0  0  0  0
   -8.5130   -1.3900    1.0810 C   0  0  0  0  0
   -8.3130   -1.7600   -0.3900 C   0  0  0  0  0
   -6.8190   -1.9230   -0.6760 C   0  0  0  0  0
   -4.6020   -0.7710   -0.6640 C   0  0  0  0  0
   -3.8980    0.5760   -0.4870 C   0  0  0  0  0
   -2.4270    0.4160   -0.7680 C   0  0  0  0  0
   -1.9840   -0.6690   -1.0800 O   0  0  0  0  0
   -1.6030    1.4780   -0.6730 N   0  0  0  0  0
   -0.1530    1.4630   -0.9190 C   0  0  0  0  0
    0.5160    0.4950    0.0220 C   0  0  0  0  0
   -0.1470   -0.1270    0.8240 O   0  0  0  0  0
    0.3700    2.8920   -0.6660 C   0  0  0  0  0
   -0.7190    3.5020    0.2560 C   0  0  0  0  0
   -2.0060    2.8490   -0.3120 C   0  0  0  0  0
    1.8520    0.3200   -0.0290 N   0  0  0  0  0
    2.5030   -0.6210    0.8860 C   0  0  0  0  0
    3.9870   -0.6300    0.6260 C   0  0  0  0  0
    4.8110    0.2470    1.3090 C   0  0  0  0  0
    6.1710    0.2440    1.0750 C   0  0  0  0  0
    6.7140   -0.6450    0.1470 C   0  0  0  0  0
    8.1730   -0.6530   -0.1080 C   0  0  0  0  0
    8.9510    0.1710    0.5340 N   0  0  0  0  0
    8.7070   -1.5320   -1.0250 N   0  0  0  0  0
    5.8780   -1.5260   -0.5380 C   0  0  0  0  0
    4.5210   -1.5180   -0.2910 C   0  0  0  0  0
   -6.5030    0.1820   -1.0100 H   0  0  0  0  0
   -5.8890   -1.0270    1.7250 H   0  0  0  0  0
   -5.7810    0.7000    1.3050 H   0  0  0  0  0
   -8.1970    0.7150    0.7470 H   0  0  0  0  0
   -7.9330    0.1900    2.4270 H   0  0  0  0  0
   -9.5770   -1.2730    1.2850 H   0  0  0  0  0
   -8.1060   -2.1790    1.7130 H   0  0  0  0  0
   -8.7200   -0.9700   -1.0220 H   0  0  0  0  0
   -8.8280   -2.6970   -0.6020 H   0  0  0  0  0
   -6.6760   -2.1870   -1.7240 H   0  0  0  0  0
   -6.4120   -2.7120   -0.0440 H   0  0  0  0  0
   -4.4640   -1.1210   -1.6870 H   0  0  0  0  0
   -4.1760   -1.4970    0.0290 H   0  0  0  0  0
   -4.0360    0.9260    0.5360 H   0  0  0  0  0
   -4.3240    1.3030   -1.1790 H   0  0  0  0  0
    0.0450    1.1730   -1.9520 H   0  0  0  0  0
    1.3340    2.8630   -0.1580 H   0  0  0  0  0
    0.4410    3.4510   -1.6000 H   0  0  0  0  0
   -0.5560    3.2150    1.2950 H   0  0  0  0  0
   -0.7550    4.5870    0.1530 H   0  0  0  0  0
   -2.3510    3.3930   -1.1910 H   0  0  0  0  0
   -2.7860    2.8230    0.4490 H   0  0  0  0  0
    2.3820    0.8170   -0.6710 H   0  0  0  0  0
    2.3160   -0.3150    1.9150 H   0  0  0  0  0
    2.1000   -1.6210    0.7250 H   0  0  0  0  0
    4.3890    0.9340    2.0270 H   0  0  0  0  0
    6.8130    0.9290    1.6080 H   0  0  0  0  0
    9.9060    0.1660    0.3660 H   0  0  0  0  0
    8.1270   -2.1460   -1.5030 H   0  0  0  0  0
    9.6620   -1.5380   -1.1920 H   0  0  0  0  0
    6.2930   -2.2170   -1.2570 H   0  0  0  0  0
    3.8730   -2.2020   -0.8180 H   0  0  0  0  0
  1  7  1  0  0  0
  1  6  1  0  0  0
  1 29  1  0  0  0
  2  1  1  0  0  0
  2 30  1  0  0  0
  2 31  1  0  0  0
  3  2  1  0  0  0
  3  4  1  0  0  0
  3 32  1  0  0  0
  3 33  1  0  0  0
  4  5  1  0  0  0
  4 34  1  0  0  0
  4 35  1  0  0  0
  5  6  1  0  0  0
  5 36  1  0  0  0
  5 37  1  0  0  0
  6 38  1  0  0  0
  6 39  1  0  0  0
  7 40  1  0  0  0
  7 41  1  0  0  0
  8  7  1  0  0  0
  8 42  1  0  0  0
  8 43  1  0  0  0
  9 10  2  0  0  0
  9  8  1  0  0  0
 11  9  1  0  0  0
 12 11  1  0  0  0
 12 44  1  0  0  0
 13 14  2  0  0  0
 13 12  1  0  0  0
 15 16  1  0  0  0
 15 12  1  0  0  0
 15 45  1  0  0  0
 15 46  1  0  0  0
 16 17  1  0  0  0
 16 47  1  0  0  0
 16 48  1  0  0  0
 17 11  1  0  0  0
 17 49  1  0  0  0
 17 50  1  0  0  0
 18 13  1  0  0  0
 18 51  1  0  0  0
 19 18  1  0  0  0
 19 20  1  0  0  0
 19 52  1  0  0  0
 19 53  1  0  0  0
 20 21  1  0  0  0
 21 22  2  0  0  0
 21 54  1  0  0  0
 22 55  1  0  0  0
 23 22  1  0  0  0
 23 24  1  0  0  0
 24 25  2  0  0  0
 25 56  1  0  0  0
 26 24  1  0  0  0
 26 57  1  0  0  0
 26 58  1  0  0  0
 27 23  2  0  0  0
 27 59  1  0  0  0
 28 20  2  0  0  0
 28 27  1  0  0  0
 28 60  1  0  0  0
M  END
$$$$
