607
  CCTOOLS-0919241038

 53 56  0  0  1  0  0  0  0  0999 V2000
    5.8840    0.1060    0.0180 C   0  0  0  0  0
    5.7700    1.2150   -0.8280 C   0  0  0  0  0
    4.5410    1.7020   -1.1710 C   0  0  0  0  0
    3.3890    1.0970   -0.6810 C   0  0  0  0  0
    3.4850   -0.0200    0.1710 C   0  0  0  0  0
    4.7420   -0.5160    0.5140 C   0  0  0  0  0
    7.2200   -0.4100    0.3810 C   0  0  0  0  0
    7.3310   -1.4660    1.1860 N   0  0  0  0  0
    8.3150    0.1800   -0.0970 N   0  3  0  0  0
    2.0420    1.3460   -0.8400 N   0  0  0  0  0
    2.2190   -0.3920    0.4860 N   0  0  0  0  0
    1.3660    0.4070   -0.1060 C   0  0  0  0  0
   -0.1040    0.3120    0.0030 C   0  0  0  0  0
   -0.7270   -0.9380    0.0020 C   0  0  0  0  0
   -2.1000   -1.0290    0.1030 C   0  0  0  0  0
   -2.7630   -2.3820    0.1010 C   0  0  0  0  0
   -2.2550   -3.1930    1.2660 C   0  0  0  0  0
   -1.4300   -2.7150    2.0270 O   0  0  0  0  0
   -2.6680   -4.3260    1.4470 O   0  5  0  0  0
   -2.4380   -3.1080   -1.2060 C   0  0  0  0  0
   -3.1990   -4.4070   -1.2620 C   0  0  0  0  0
   -3.9670   -4.7380   -0.3000 O   0  0  0  0  0
   -3.0750   -5.1760   -2.2720 O   0  5  0  0  0
   -2.8710    0.1140    0.2070 C   0  0  0  0  0
   -2.2670    1.3690    0.2100 C   0  0  0  0  0
   -0.8770    1.4720    0.1130 C   0  0  0  0  0
   -0.2810    2.6910    0.1160 O   0  5  0  0  0
   -3.0980    2.5930    0.3200 C   0  0  0  0  0
   -3.1480    3.5070   -0.7390 C   0  0  0  0  0
   -3.9330    4.6460   -0.6270 C   0  0  0  0  0
   -4.6510    4.8810    0.5290 C   0  0  0  0  0
   -4.5980    3.9810    1.5800 C   0  0  0  0  0
   -3.8260    2.8410    1.4810 C   0  0  0  0  0
   -2.4220    3.2670   -1.9060 N   0  0  0  0  0
    6.6600    1.6900   -1.2130 H   0  0  0  0  0
    4.4640    2.5580   -1.8240 H   0  0  0  0  0
    4.8290   -1.3750    1.1630 H   0  0  0  0  0
    8.2080   -1.8040    1.4250 H   0  0  0  0  0
    6.5340   -1.8960    1.5350 H   0  0  0  0  0
    8.2340    0.9490   -0.6830 H   0  0  0  0  0
    9.1920   -0.1560    0.1440 H   0  0  0  0  0
    1.6460    2.0540   -1.3720 H   0  0  0  0  0
   -0.1320   -1.8360   -0.0790 H   0  0  0  0  0
   -3.8430   -2.2580    0.1890 H   0  0  0  0  0
   -2.7250   -2.4810   -2.0500 H   0  0  0  0  0
   -1.3680   -3.3110   -1.2520 H   0  0  0  0  0
   -3.9450    0.0330    0.2850 H   0  0  0  0  0
   -3.9780    5.3510   -1.4440 H   0  0  0  0  0
   -5.2560    5.7710    0.6140 H   0  0  0  0  0
   -5.1620    4.1720    2.4800 H   0  0  0  0  0
   -3.7880    2.1420    2.3030 H   0  0  0  0  0
   -2.4650    3.8980   -2.6420 H   0  0  0  0  0
   -1.8740    2.4700   -1.9810 H   0  0  0  0  0
  1  2  2  0  0  0
  1  6  1  0  0  0
  1  7  1  0  0  0
  2  3  1  0  0  0
  2 35  1  0  0  0
  3  4  2  0  0  0
  3 36  1  0  0  0
  4  5  1  0  0  0
  4 10  1  0  0  0
  5  6  2  0  0  0
  5 11  1  0  0  0
  6 37  1  0  0  0
  7  8  1  0  0  0
  7  9  2  0  0  0
  8 38  1  0  0  0
  8 39  1  0  0  0
  9 40  1  0  0  0
  9 41  1  0  0  0
 10 12  1  0  0  0
 10 42  1  0  0  0
 11 12  2  0  0  0
 12 13  1  0  0  0
 13 14  2  0  0  0
 13 26  1  0  0  0
 14 15  1  0  0  0
 14 43  1  0  0  0
 15 16  1  0  0  0
 15 24  2  0  0  0
 16 17  1  0  0  0
 16 20  1  0  0  0
 16 44  1  0  0  0
 17 18  2  0  0  0
 17 19  1  0  0  0
 20 21  1  0  0  0
 20 45  1  0  0  0
 20 46  1  0  0  0
 21 22  2  0  0  0
 21 23  1  0  0  0
 24 25  1  0  0  0
 24 47  1  0  0  0
 25 26  2  0  0  0
 25 28  1  0  0  0
 26 27  1  0  0  0
 28 29  2  0  0  0
 28 33  1  0  0  0
 29 30  1  0  0  0
 29 34  1  0  0  0
 30 31  2  0  0  0
 30 48  1  0  0  0
 31 32  1  0  0  0
 31 49  1  0  0  0
 32 33  2  0  0  0
 32 50  1  0  0  0
 33 51  1  0  0  0
 34 52  1  0  0  0
 34 53  1  0  0  0
M  CHG  1   9   1
M  CHG  1  19  -1
M  CHG  1  23  -1
M  CHG  1  27  -1
M  END
$$$$
