623
  CCTOOLS-0919241038

 47 49  0  0  0  0  0  0  0  0999 V2000
   -1.1600    3.0500   -0.4190 C   0  0  0  0  0
   -2.2970    3.6580   -0.8240 F   0  0  0  0  0
   -0.0900    3.8000    0.0440 C   0  0  0  0  0
    1.0590    3.1350    0.4490 C   0  0  0  0  0
    2.1240    3.8290    0.9070 F   0  0  0  0  0
    1.1000    1.7480    0.3790 C   0  0  0  0  0
    0.0600    1.0630   -0.0680 N   0  3  0  0  0
   -1.0520    1.6650   -0.4570 C   0  0  0  0  0
   -0.1710    5.3040    0.1040 C   0  0  0  0  0
    2.2190    1.0890    0.7740 O   0  0  0  0  0
   -2.0970    0.9220   -0.9030 O   0  0  0  0  0
   -2.5130   -0.1190   -0.1350 C   0  0  0  0  0
   -3.6430   -0.8370   -0.4940 C   0  0  0  0  0
   -4.0650   -1.9040    0.2960 C   0  0  0  0  0
   -3.3490   -2.2440    1.4440 C   0  0  0  0  0
   -2.2240   -1.5230    1.7930 C   0  0  0  0  0
   -1.8030   -0.4680    1.0060 C   0  0  0  0  0
   -5.2720   -2.6750   -0.0810 C   0  0  0  0  0
   -5.9400   -2.3560   -1.1520 N   0  0  0  0  0
   -5.6880   -3.7300    0.7020 N   0  0  0  0  0
    2.6220    0.0190    0.0390 C   0  0  0  0  0
    1.9670   -0.2970   -1.1430 C   0  0  0  0  0
    2.3720   -1.3840   -1.8940 C   0  0  0  0  0
    3.4310   -2.1620   -1.4730 C   0  0  0  0  0
    4.0960   -1.8520   -0.2870 C   0  0  0  0  0
    3.6900   -0.7520    0.4670 C   0  0  0  0  0
    5.2320   -2.6850    0.1680 C   0  0  0  0  0
    5.8510   -2.3940    1.2760 N   0  0  0  0  0
    5.6350   -3.7690   -0.5810 N   0  0  0  0  0
    0.1130    0.0950   -0.1080 H   0  0  0  0  0
   -0.5630    5.6070    1.0750 H   0  0  0  0  0
    0.8230    5.7280   -0.0350 H   0  0  0  0  0
   -0.8330    5.6630   -0.6830 H   0  0  0  0  0
   -4.1940   -0.5690   -1.3830 H   0  0  0  0  0
   -3.6730   -3.0700    2.0590 H   0  0  0  0  0
   -1.6700   -1.7870    2.6810 H   0  0  0  0  0
   -0.9200    0.0900    1.2810 H   0  0  0  0  0
   -6.7310   -2.8610   -1.3990 H   0  0  0  0  0
   -5.1910   -3.9680    1.5000 H   0  0  0  0  0
   -6.4790   -4.2350    0.4550 H   0  0  0  0  0
    1.1370    0.3080   -1.4770 H   0  0  0  0  0
    1.8590   -1.6260   -2.8130 H   0  0  0  0  0
    3.7460   -3.0110   -2.0620 H   0  0  0  0  0
    4.2030   -0.5050    1.3840 H   0  0  0  0  0
    6.5960   -2.9400    1.5740 H   0  0  0  0  0
    5.1740   -3.9860   -1.4070 H   0  0  0  0  0
    6.3800   -4.3150   -0.2830 H   0  0  0  0  0
  1  2  1  0  0  0
  1  3  2  0  0  0
  1  8  1  0  0  0
  3  4  1  0  0  0
  3  9  1  0  0  0
  4  5  1  0  0  0
  4  6  2  0  0  0
  6  7  1  0  0  0
  6 10  1  0  0  0
  7  8  2  0  0  0
  7 30  1  0  0  0
  8 11  1  0  0  0
  9 31  1  0  0  0
  9 32  1  0  0  0
  9 33  1  0  0  0
 10 21  1  0  0  0
 11 12  1  0  0  0
 12 13  2  0  0  0
 12 17  1  0  0  0
 13 14  1  0  0  0
 13 34  1  0  0  0
 14 15  2  0  0  0
 14 18  1  0  0  0
 15 16  1  0  0  0
 15 35  1  0  0  0
 16 17  2  0  0  0
 16 36  1  0  0  0
 17 37  1  0  0  0
 18 19  2  0  0  0
 18 20  1  0  0  0
 19 38  1  0  0  0
 20 39  1  0  0  0
 20 40  1  0  0  0
 21 22  2  0  0  0
 21 26  1  0  0  0
 22 23  1  0  0  0
 22 41  1  0  0  0
 23 24  2  0  0  0
 23 42  1  0  0  0
 24 25  1  0  0  0
 24 43  1  0  0  0
 25 26  2  0  0  0
 25 27  1  0  0  0
 26 44  1  0  0  0
 27 28  2  0  0  0
 27 29  1  0  0  0
 28 45  1  0  0  0
 29 46  1  0  0  0
 29 47  1  0  0  0
M  CHG  1   7   1
M  END
$$$$
