653
  CCTOOLS-0919241039

 50 53  0  0  0  0  0  0  0  0999 V2000
    5.3370    0.3610    0.0730 C   0  0  0  0  0
    5.0720    1.5470   -0.6230 C   0  0  0  0  0
    3.7940    1.8720   -0.9760 C   0  0  0  0  0
    2.7420    1.0260   -0.6470 C   0  0  0  0  0
    2.9900   -0.1710    0.0520 C   0  0  0  0  0
    4.2980   -0.5020    0.4060 C   0  0  0  0  0
    6.7260    0.0220    0.4500 C   0  0  0  0  0
    6.9800   -1.1060    1.1110 N   0  0  0  0  0
    7.7230    0.8450    0.1270 N   0  3  0  0  0
    1.3800    1.0730   -0.8570 N   0  0  0  0  0
    1.7940   -0.7850    0.2320 N   0  0  0  0  0
    0.8430   -0.0580   -0.3010 C   0  0  0  0  0
   -0.5940   -0.4050   -0.3010 C   0  0  0  0  0
   -0.9950   -1.7260   -0.5100 C   0  0  0  0  0
   -2.3360   -2.0510   -0.5100 C   0  0  0  0  0
   -2.7600   -3.4790   -0.7370 C   0  0  0  0  0
   -2.8450   -4.2050    0.6070 C   0  0  0  0  0
   -3.2590   -5.5970    0.3860 N   0  3  0  0  0
   -3.2930   -1.0750   -0.3030 C   0  0  0  0  0
   -2.9110    0.2480   -0.0920 C   0  0  0  0  0
   -1.5560    0.5880   -0.0860 C   0  0  0  0  0
   -1.1750    1.8740    0.1190 O   0  5  0  0  0
   -3.9400    1.2930    0.1300 C   0  0  0  0  0
   -3.8310    2.1640    1.2120 C   0  0  0  0  0
   -4.7910    3.1340    1.4140 C   0  0  0  0  0
   -5.8620    3.2420    0.5440 C   0  0  0  0  0
   -5.9760    2.3800   -0.5310 C   0  0  0  0  0
   -5.0180    1.4100   -0.7470 C   0  0  0  0  0
    5.8850    2.2100   -0.8810 H   0  0  0  0  0
    3.6000    2.7890   -1.5120 H   0  0  0  0  0
    4.5030   -1.4200    0.9370 H   0  0  0  0  0
    7.8910   -1.3280    1.3590 H   0  0  0  0  0
    6.2540   -1.7040    1.3460 H   0  0  0  0  0
    7.5380    1.6660   -0.3550 H   0  0  0  0  0
    8.6340    0.6240    0.3780 H   0  0  0  0  0
    0.8920    1.7760   -1.3140 H   0  0  0  0  0
   -0.2540   -2.4950   -0.6720 H   0  0  0  0  0
   -3.7370   -3.4950   -1.2210 H   0  0  0  0  0
   -2.0300   -3.9780   -1.3740 H   0  0  0  0  0
   -1.8690   -4.1890    1.0910 H   0  0  0  0  0
   -3.5750   -3.7060    1.2450 H   0  0  0  0  0
   -4.1630   -5.6130   -0.0620 H   0  0  0  0  0
   -2.5830   -6.0590   -0.2040 H   0  0  0  0  0
   -3.3150   -6.0760    1.2720 H   0  0  0  0  0
   -4.3400   -1.3390   -0.3050 H   0  0  0  0  0
   -2.9960    2.0800    1.8920 H   0  0  0  0  0
   -4.7080    3.8100    2.2520 H   0  0  0  0  0
   -6.6110    4.0030    0.7060 H   0  0  0  0  0
   -6.8140    2.4690   -1.2070 H   0  0  0  0  0
   -5.1070    0.7380   -1.5870 H   0  0  0  0  0
  1  2  2  0  0  0
  1  6  1  0  0  0
  1  7  1  0  0  0
  2  3  1  0  0  0
  2 29  1  0  0  0
  3  4  2  0  0  0
  3 30  1  0  0  0
  4  5  1  0  0  0
  4 10  1  0  0  0
  5  6  2  0  0  0
  5 11  1  0  0  0
  6 31  1  0  0  0
  7  8  1  0  0  0
  7  9  2  0  0  0
  8 32  1  0  0  0
  8 33  1  0  0  0
  9 34  1  0  0  0
  9 35  1  0  0  0
 10 12  1  0  0  0
 10 36  1  0  0  0
 11 12  2  0  0  0
 12 13  1  0  0  0
 13 14  2  0  0  0
 13 21  1  0  0  0
 14 15  1  0  0  0
 14 37  1  0  0  0
 15 16  1  0  0  0
 15 19  2  0  0  0
 16 17  1  0  0  0
 16 38  1  0  0  0
 16 39  1  0  0  0
 17 18  1  0  0  0
 17 40  1  0  0  0
 17 41  1  0  0  0
 18 42  1  0  0  0
 18 43  1  0  0  0
 18 44  1  0  0  0
 19 20  1  0  0  0
 19 45  1  0  0  0
 20 21  2  0  0  0
 20 23  1  0  0  0
 21 22  1  0  0  0
 23 24  2  0  0  0
 23 28  1  0  0  0
 24 25  1  0  0  0
 24 46  1  0  0  0
 25 26  2  0  0  0
 25 47  1  0  0  0
 26 27  1  0  0  0
 26 48  1  0  0  0
 27 28  2  0  0  0
 27 49  1  0  0  0
 28 50  1  0  0  0
M  CHG  1   9   1
M  CHG  1  18   1
M  CHG  1  22  -1
M  END
$$$$
