655
  CCTOOLS-0919241039

 45 48  0  0  0  0  0  0  0  0999 V2000
    5.1730    0.3600   -0.0840 C   0  0  0  0  0
    5.2750   -0.9320   -0.6130 C   0  0  0  0  0
    4.1640   -1.7140   -0.7500 C   0  0  0  0  0
    2.9190   -1.2320   -0.3630 C   0  0  0  0  0
    2.7980    0.0650    0.1710 C   0  0  0  0  0
    3.9370    0.8580    0.3140 C   0  0  0  0  0
    6.3840    1.1950    0.0590 C   0  0  0  0  0
    6.2900    2.4250    0.5620 N   0  0  0  0  0
    7.5700    0.7180   -0.3160 N   0  3  0  0  0
    1.6460   -1.7630   -0.3750 N   0  0  0  0  0
    1.4860    0.2600    0.4540 N   0  0  0  0  0
    0.8030   -0.8120    0.1350 C   0  0  0  0  0
   -0.6560   -0.9700    0.3000 C   0  0  0  0  0
   -1.1840   -2.1850    0.7430 C   0  0  0  0  0
   -2.5470   -2.3290    0.8960 C   0  0  0  0  0
   -3.3980   -1.2740    0.6120 C   0  0  0  0  0
   -2.8880   -0.0640    0.1720 C   0  0  0  0  0
   -3.7290    0.9680   -0.1050 O   0  0  0  0  0
   -1.5150    0.0970    0.0180 C   0  0  0  0  0
   -1.0110    1.2830   -0.4140 O   0  5  0  0  0
   -5.9280    1.7860    0.5350 C   0  0  0  0  0
   -5.0360    0.5550    0.2980 C   0  0  0  0  0
   -5.7030   -0.2620   -0.8270 C   0  0  0  0  0
   -7.1920    0.1610   -0.7730 C   0  0  0  0  0
   -7.1060    1.6740   -0.4550 C   0  0  0  0  0
    6.2390   -1.3130   -0.9160 H   0  0  0  0  0
    4.2530   -2.7090   -1.1600 H   0  0  0  0  0
    3.8580    1.8530    0.7270 H   0  0  0  0  0
    5.4260    2.7720    0.8350 H   0  0  0  0  0
    7.0850    2.9730    0.6560 H   0  0  0  0  0
    8.3650    1.2670   -0.2230 H   0  0  0  0  0
    7.6400   -0.1780   -0.6790 H   0  0  0  0  0
    1.3950   -2.6470   -0.6870 H   0  0  0  0  0
   -0.5260   -3.0110    0.9660 H   0  0  0  0  0
   -2.9530   -3.2700    1.2390 H   0  0  0  0  0
   -4.4640   -1.3960    0.7340 H   0  0  0  0  0
   -6.3000    1.7860    1.5600 H   0  0  0  0  0
   -5.3640    2.6990    0.3420 H   0  0  0  0  0
   -4.9750   -0.0420    1.2080 H   0  0  0  0  0
   -5.2690   -0.0060   -1.7940 H   0  0  0  0  0
   -5.6030   -1.3300   -0.6340 H   0  0  0  0  0
   -7.7160   -0.3720    0.0210 H   0  0  0  0  0
   -7.6760   -0.0050   -1.7350 H   0  0  0  0  0
   -8.0290    2.0190    0.0110 H   0  0  0  0  0
   -6.8990    2.2430   -1.3610 H   0  0  0  0  0
  1  2  2  0  0  0
  1  6  1  0  0  0
  1  7  1  0  0  0
  2  3  1  0  0  0
  2 26  1  0  0  0
  3  4  2  0  0  0
  3 27  1  0  0  0
  4  5  1  0  0  0
  4 10  1  0  0  0
  5  6  2  0  0  0
  5 11  1  0  0  0
  6 28  1  0  0  0
  7  8  1  0  0  0
  7  9  2  0  0  0
  8 29  1  0  0  0
  8 30  1  0  0  0
  9 31  1  0  0  0
  9 32  1  0  0  0
 10 12  1  0  0  0
 10 33  1  0  0  0
 11 12  2  0  0  0
 12 13  1  0  0  0
 13 14  2  0  0  0
 13 19  1  0  0  0
 14 15  1  0  0  0
 14 34  1  0  0  0
 15 16  2  0  0  0
 15 35  1  0  0  0
 16 17  1  0  0  0
 16 36  1  0  0  0
 17 18  1  0  0  0
 17 19  2  0  0  0
 18 22  1  0  0  0
 19 20  1  0  0  0
 21 22  1  0  0  0
 21 25  1  0  0  0
 21 37  1  0  0  0
 21 38  1  0  0  0
 22 23  1  0  0  0
 22 39  1  0  0  0
 23 24  1  0  0  0
 23 40  1  0  0  0
 23 41  1  0  0  0
 24 25  1  0  0  0
 24 42  1  0  0  0
 24 43  1  0  0  0
 25 44  1  0  0  0
 25 45  1  0  0  0
M  CHG  1   9   1
M  CHG  1  20  -1
M  END
$$$$
