656
  CCTOOLS-0919241039

 44 46  0  0  0  0  0  0  0  0999 V2000
    4.9290   -0.4130    0.0270 C   0  0  0  0  0
    5.0600    0.8150    0.6890 C   0  0  0  0  0
    3.9670    1.6020    0.9100 C   0  0  0  0  0
    2.7110    1.1910    0.4780 C   0  0  0  0  0
    2.5610   -0.0400   -0.1880 C   0  0  0  0  0
    3.6810   -0.8410   -0.4120 C   0  0  0  0  0
    6.1210   -1.2550   -0.2050 C   0  0  0  0  0
    7.3180   -0.8460    0.2140 N   0  0  0  0  0
    5.9990   -2.4230   -0.8340 N   0  3  0  0  0
    1.4510    1.7460    0.5490 N   0  0  0  0  0
    1.2440   -0.1780   -0.4820 N   0  0  0  0  0
    0.5870    0.8720   -0.0550 C   0  0  0  0  0
   -0.8690    1.0800   -0.1990 C   0  0  0  0  0
   -1.3700    2.3450   -0.5130 C   0  0  0  0  0
   -2.7290    2.5350   -0.6460 C   0  0  0  0  0
   -3.6030    1.4760   -0.4710 C   0  0  0  0  0
   -3.1200    0.2150   -0.1600 C   0  0  0  0  0
   -1.7530    0.0100   -0.0170 C   0  0  0  0  0
   -1.2760   -1.2250    0.2880 O   0  5  0  0  0
   -3.9850   -0.8210    0.0100 O   0  0  0  0  0
   -5.3000   -0.3000   -0.1940 C   0  0  0  0  0
   -6.3260   -1.4210   -0.0150 C   0  0  0  0  0
   -6.3030   -1.9070    1.4350 C   0  0  0  0  0
   -7.7210   -0.8930   -0.3550 C   0  0  0  0  0
    6.0330    1.1400    1.0270 H   0  0  0  0  0
    4.0780    2.5470    1.4200 H   0  0  0  0  0
    3.5800   -1.7870   -0.9230 H   0  0  0  0  0
    7.4070    0.0040    0.6720 H   0  0  0  0  0
    8.1000   -1.3990    0.0620 H   0  0  0  0  0
    6.7820   -2.9760   -0.9870 H   0  0  0  0  0
    5.1280   -2.7200   -1.1400 H   0  0  0  0  0
    1.2190    2.5980    0.9520 H   0  0  0  0  0
   -0.6920    3.1740   -0.6510 H   0  0  0  0  0
   -3.1130    3.5150   -0.8890 H   0  0  0  0  0
   -4.6660    1.6330   -0.5770 H   0  0  0  0  0
   -5.3770    0.1070   -1.2020 H   0  0  0  0  0
   -5.4940    0.4890    0.5330 H   0  0  0  0  0
   -6.0780   -2.2490   -0.6800 H   0  0  0  0  0
   -6.5500   -1.0790    2.1000 H   0  0  0  0  0
   -7.0340   -2.7060    1.5620 H   0  0  0  0  0
   -5.3090   -2.2830    1.6770 H   0  0  0  0  0
   -7.9680   -0.0660    0.3100 H   0  0  0  0  0
   -7.7370   -0.5470   -1.3880 H   0  0  0  0  0
   -8.4520   -1.6920   -0.2280 H   0  0  0  0  0
  1  2  2  0  0  0
  1  6  1  0  0  0
  1  7  1  0  0  0
  2  3  1  0  0  0
  2 25  1  0  0  0
  3  4  2  0  0  0
  3 26  1  0  0  0
  4  5  1  0  0  0
  4 10  1  0  0  0
  5  6  2  0  0  0
  5 11  1  0  0  0
  6 27  1  0  0  0
  7  8  1  0  0  0
  7  9  2  0  0  0
  8 28  1  0  0  0
  8 29  1  0  0  0
  9 30  1  0  0  0
  9 31  1  0  0  0
 10 12  1  0  0  0
 10 32  1  0  0  0
 11 12  2  0  0  0
 12 13  1  0  0  0
 13 14  2  0  0  0
 13 18  1  0  0  0
 14 15  1  0  0  0
 14 33  1  0  0  0
 15 16  2  0  0  0
 15 34  1  0  0  0
 16 17  1  0  0  0
 16 35  1  0  0  0
 17 18  2  0  0  0
 17 20  1  0  0  0
 18 19  1  0  0  0
 20 21  1  0  0  0
 21 22  1  0  0  0
 21 36  1  0  0  0
 21 37  1  0  0  0
 22 23  1  0  0  0
 22 24  1  0  0  0
 22 38  1  0  0  0
 23 39  1  0  0  0
 23 40  1  0  0  0
 23 41  1  0  0  0
 24 42  1  0  0  0
 24 43  1  0  0  0
 24 44  1  0  0  0
M  CHG  1   9   1
M  CHG  1  19  -1
M  END
$$$$
