678
  CCTOOLS-0919241039

 37 39  0  0  0  0  0  0  0  0999 V2000
    5.3960    0.0840   -0.0280 C   0  0  0  0  0
    5.2150    1.3500   -0.6010 C   0  0  0  0  0
    3.9630    1.8680   -0.7640 C   0  0  0  0  0
    2.8450    1.1420   -0.3600 C   0  0  0  0  0
    3.0140   -0.1330    0.2180 C   0  0  0  0  0
    4.2940   -0.6610    0.3780 C   0  0  0  0  0
    6.7590   -0.4620    0.1410 C   0  0  0  0  0
    6.9320   -1.6650    0.6860 N   0  0  0  0  0
    7.8150    0.2490   -0.2520 N   0  3  0  0  0
    1.4950    1.4010   -0.3970 N   0  0  0  0  0
    1.6700   -0.6230    0.5270 C   0  0  0  0  0
    0.8000    0.3400    0.1360 C   0  0  0  0  0
   -0.6710    0.2620    0.2630 C   0  0  0  0  0
   -1.4020    1.3880    0.6440 C   0  0  0  0  0
   -2.7750    1.3090    0.7600 C   0  0  0  0  0
   -3.5640    2.5250    1.1720 C   0  0  0  0  0
   -3.9640    3.3030   -0.0550 C   0  0  0  0  0
   -3.6390    2.9070   -1.1620 O   0  0  0  0  0
   -4.6130    4.3300    0.0580 O   0  5  0  0  0
   -3.4300    0.1180    0.5000 C   0  0  0  0  0
   -2.7160   -1.0040    0.1230 C   0  0  0  0  0
   -1.3370   -0.9400   -0.0050 C   0  0  0  0  0
   -0.6340   -2.0410   -0.3760 O   0  5  0  0  0
   -3.6220   -2.6260   -0.2300 BR  0  0  0  0  0
    6.0750    1.9210   -0.9170 H   0  0  0  0  0
    3.8390    2.8450   -1.2070 H   0  0  0  0  0
    4.4290   -1.6400    0.8150 H   0  0  0  0  0
    7.8260   -2.0230    0.7970 H   0  0  0  0  0
    6.1630   -2.1830    0.9720 H   0  0  0  0  0
    7.6890    1.1250   -0.6490 H   0  0  0  0  0
    8.7090   -0.1070   -0.1380 H   0  0  0  0  0
    1.0930    2.2120   -0.7470 H   0  0  0  0  0
    1.4200   -1.5710    0.9800 H   0  0  0  0  0
   -0.8950    2.3190    0.8470 H   0  0  0  0  0
   -2.9510    3.1550    1.8170 H   0  0  0  0  0
   -4.4570    2.2130    1.7120 H   0  0  0  0  0
   -4.5050    0.0650    0.5940 H   0  0  0  0  0
  1  2  2  0  0  0
  1  6  1  0  0  0
  1  7  1  0  0  0
  2  3  1  0  0  0
  2 25  1  0  0  0
  3  4  2  0  0  0
  3 26  1  0  0  0
  4  5  1  0  0  0
  4 10  1  0  0  0
  5  6  2  0  0  0
  5 11  1  0  0  0
  6 27  1  0  0  0
  7  8  1  0  0  0
  7  9  2  0  0  0
  8 28  1  0  0  0
  8 29  1  0  0  0
  9 30  1  0  0  0
  9 31  1  0  0  0
 10 12  1  0  0  0
 10 32  1  0  0  0
 11 12  2  0  0  0
 11 33  1  0  0  0
 12 13  1  0  0  0
 13 14  2  0  0  0
 13 22  1  0  0  0
 14 15  1  0  0  0
 14 34  1  0  0  0
 15 16  1  0  0  0
 15 20  2  0  0  0
 16 17  1  0  0  0
 16 35  1  0  0  0
 16 36  1  0  0  0
 17 18  2  0  0  0
 17 19  1  0  0  0
 20 21  1  0  0  0
 20 37  1  0  0  0
 21 22  2  0  0  0
 21 24  1  0  0  0
 22 23  1  0  0  0
M  CHG  1   9   1
M  CHG  1  19  -1
M  CHG  1  23  -1
M  END
$$$$
