688
  CCTOOLS-0919241039

 49 52  0  0  0  0  0  0  0  0999 V2000
   -1.6960   -1.0160   -1.8900 C   0  0  0  0  0
   -2.5030   -0.1770   -1.1170 C   0  0  0  0  0
   -1.9120    0.5160   -0.0570 C   0  0  0  0  0
   -0.5570    0.3480    0.1860 C   0  0  0  0  0
    0.1710   -0.4600   -0.5650 N   0  0  0  0  0
   -0.3480   -1.1290   -1.5800 C   0  0  0  0  0
    0.0260    1.0160    1.2120 O   0  0  0  0  0
    0.4440   -1.9410   -2.3240 O   0  0  0  0  0
   -3.9460   -0.0270   -1.4140 C   0  0  0  0  0
   -4.4420   -0.6370   -2.3390 O   0  0  0  0  0
   -4.7070    0.7850   -0.6570 O   0  0  0  0  0
    1.0450   -1.1550   -3.2570 C   0  0  0  0  0
    0.6950    0.1770   -3.3680 C   0  0  0  0  0
    1.3110    0.9790   -4.3300 C   0  0  0  0  0
    2.2840    0.4350   -5.1690 C   0  0  0  0  0
    2.6330   -0.8930   -5.0510 C   0  0  0  0  0
    2.0180   -1.6920   -4.0980 C   0  0  0  0  0
    0.9360    2.4040   -4.4560 C   0  0  0  0  0
    0.1100    2.9390   -3.6010 N   0  0  0  0  0
    1.4600    3.1670   -5.4780 N   0  0  0  0  0
    2.3640   -3.0010   -3.9850 O   0  0  0  0  0
   -0.0100    0.1890    2.2910 C   0  0  0  0  0
   -0.4760   -1.1110    2.1520 C   0  0  0  0  0
   -0.5150   -1.9560    3.2460 C   0  0  0  0  0
   -0.0920   -1.5120    4.4820 C   0  0  0  0  0
    0.3770   -0.2060    4.6300 C   0  0  0  0  0
    0.4220    0.6430    3.5250 C   0  0  0  0  0
    0.8320    0.2720    5.9540 C   0  0  0  0  0
    0.9430   -0.4850    7.0830 N   0  0  0  0  0
    1.2030    1.5000    6.2420 N   0  0  0  0  0
    1.5450    1.5650    7.5340 C   0  0  0  0  0
    1.3950    0.3400    8.0760 C   0  0  0  0  0
   -2.1150   -1.5690   -2.7180 H   0  0  0  0  0
   -2.5030    1.1740    0.5620 H   0  0  0  0  0
   -5.6500    0.8830   -0.8510 H   0  0  0  0  0
   -0.0570    0.5950   -2.7160 H   0  0  0  0  0
    2.7640    1.0550   -5.9120 H   0  0  0  0  0
    3.3860   -1.3120   -5.7010 H   0  0  0  0  0
   -0.1970    2.4250   -2.8390 H   0  0  0  0  0
    1.1580    4.0800   -5.6050 H   0  0  0  0  0
    2.1330    2.7920   -6.0670 H   0  0  0  0  0
    3.0910   -3.0440   -3.3490 H   0  0  0  0  0
   -0.8090   -1.4630    1.1870 H   0  0  0  0  0
   -0.8790   -2.9660    3.1320 H   0  0  0  0  0
   -0.1240   -2.1740    5.3340 H   0  0  0  0  0
    0.7840    1.6540    3.6340 H   0  0  0  0  0
    0.7410   -1.4300    7.1650 H   0  0  0  0  0
    1.8880    2.4480    8.0530 H   0  0  0  0  0
    1.5930    0.0630    9.1010 H   0  0  0  0  0
  1  2  2  0  0  0
  1  6  1  0  0  0
  1 33  1  0  0  0
  2  3  1  0  0  0
  2  9  1  0  0  0
  3  4  2  0  0  0
  3 34  1  0  0  0
  4  5  1  0  0  0
  4  7  1  0  0  0
  5  6  2  0  0  0
  6  8  1  0  0  0
  7 22  1  0  0  0
  8 12  1  0  0  0
  9 10  2  0  0  0
  9 11  1  0  0  0
 11 35  1  0  0  0
 12 13  2  0  0  0
 12 17  1  0  0  0
 13 14  1  0  0  0
 13 36  1  0  0  0
 14 15  2  0  0  0
 14 18  1  0  0  0
 15 16  1  0  0  0
 15 37  1  0  0  0
 16 17  2  0  0  0
 16 38  1  0  0  0
 17 21  1  0  0  0
 18 19  2  0  0  0
 18 20  1  0  0  0
 19 39  1  0  0  0
 20 40  1  0  0  0
 20 41  1  0  0  0
 21 42  1  0  0  0
 22 23  2  0  0  0
 22 27  1  0  0  0
 23 24  1  0  0  0
 23 43  1  0  0  0
 24 25  2  0  0  0
 24 44  1  0  0  0
 25 26  1  0  0  0
 25 45  1  0  0  0
 26 27  2  0  0  0
 26 28  1  0  0  0
 27 46  1  0  0  0
 28 29  1  0  0  0
 28 30  2  0  0  0
 29 32  1  0  0  0
 29 47  1  0  0  0
 30 31  1  0  0  0
 31 32  2  0  0  0
 31 48  1  0  0  0
 32 49  1  0  0  0
M  END
$$$$
