693
  CCTOOLS-0919241039

 51 54  0  0  1  0  0  0  0  0999 V2000
    5.9000    0.1270    0.0170 C   0  0  0  0  0
    5.7770    1.2390   -0.8250 C   0  0  0  0  0
    4.5440    1.7170   -1.1640 C   0  0  0  0  0
    3.3980    1.1020   -0.6750 C   0  0  0  0  0
    3.5030   -0.0170    0.1720 C   0  0  0  0  0
    4.7650   -0.5060    0.5120 C   0  0  0  0  0
    7.2420   -0.3810    0.3760 C   0  0  0  0  0
    7.3610   -1.4390    1.1770 N   0  0  0  0  0
    8.3310    0.2200   -0.1010 N   0  3  0  0  0
    2.0480    1.3420   -0.8300 N   0  0  0  0  0
    2.2410   -0.4000    0.4880 N   0  0  0  0  0
    1.3810    0.3960   -0.0990 C   0  0  0  0  0
   -0.0890    0.2890    0.0120 C   0  0  0  0  0
   -0.7030   -0.9650    0.0070 C   0  0  0  0  0
   -2.0750   -1.0660    0.1110 C   0  0  0  0  0
   -2.7290   -2.4230    0.1050 C   0  0  0  0  0
   -2.2120   -3.2350    1.2640 C   0  0  0  0  0
   -1.3890   -2.7560    2.0260 O   0  0  0  0  0
   -2.6170   -4.3720    1.4410 O   0  5  0  0  0
   -2.4010   -3.1410   -1.2060 C   0  0  0  0  0
   -3.1530   -4.4450   -1.2670 C   0  0  0  0  0
   -3.9170   -4.7860   -0.3040 O   0  0  0  0  0
   -3.0260   -5.2090   -2.2800 O   0  5  0  0  0
   -2.8530    0.0710    0.2210 C   0  0  0  0  0
   -2.2590    1.3300    0.2280 C   0  0  0  0  0
   -0.8700    1.4440    0.1290 C   0  0  0  0  0
   -0.2820    2.6670    0.1350 O   0  5  0  0  0
   -3.0970    2.5480    0.3460 C   0  0  0  0  0
   -3.1560    3.4630   -0.7060 C   0  0  0  0  0
   -3.9450    4.5930   -0.5910 C   0  0  0  0  0
   -4.6640    4.8220    0.5680 C   0  0  0  0  0
   -4.6040    3.9200    1.6150 C   0  0  0  0  0
   -3.8250    2.7860    1.5110 C   0  0  0  0  0
   -2.4530    3.2400   -1.8380 F   0  0  0  0  0
    6.6640    1.7220   -1.2080 H   0  0  0  0  0
    4.4600    2.5760   -1.8140 H   0  0  0  0  0
    4.8590   -1.3670    1.1570 H   0  0  0  0  0
    8.2410   -1.7710    1.4130 H   0  0  0  0  0
    6.5680   -1.8760    1.5240 H   0  0  0  0  0
    8.2440    0.9910   -0.6840 H   0  0  0  0  0
    9.2110   -0.1100    0.1380 H   0  0  0  0  0
    1.6470    2.0490   -1.3590 H   0  0  0  0  0
   -0.1020   -1.8580   -0.0790 H   0  0  0  0  0
   -3.8090   -2.3070    0.1950 H   0  0  0  0  0
   -2.6950   -2.5130   -2.0480 H   0  0  0  0  0
   -1.3300   -3.3360   -1.2560 H   0  0  0  0  0
   -3.9270   -0.0170    0.3020 H   0  0  0  0  0
   -3.9960    5.3000   -1.4060 H   0  0  0  0  0
   -5.2750    5.7080    0.6550 H   0  0  0  0  0
   -5.1690    4.1050    2.5170 H   0  0  0  0  0
   -3.7800    2.0830    2.3300 H   0  0  0  0  0
  1  2  2  0  0  0
  1  6  1  0  0  0
  1  7  1  0  0  0
  2  3  1  0  0  0
  2 35  1  0  0  0
  3  4  2  0  0  0
  3 36  1  0  0  0
  4  5  1  0  0  0
  4 10  1  0  0  0
  5  6  2  0  0  0
  5 11  1  0  0  0
  6 37  1  0  0  0
  7  8  1  0  0  0
  7  9  2  0  0  0
  8 38  1  0  0  0
  8 39  1  0  0  0
  9 40  1  0  0  0
  9 41  1  0  0  0
 10 12  1  0  0  0
 10 42  1  0  0  0
 11 12  2  0  0  0
 12 13  1  0  0  0
 13 14  2  0  0  0
 13 26  1  0  0  0
 14 15  1  0  0  0
 14 43  1  0  0  0
 15 16  1  0  0  0
 15 24  2  0  0  0
 16 17  1  0  0  0
 16 20  1  0  0  0
 16 44  1  0  0  0
 17 18  2  0  0  0
 17 19  1  0  0  0
 20 21  1  0  0  0
 20 45  1  0  0  0
 20 46  1  0  0  0
 21 22  2  0  0  0
 21 23  1  0  0  0
 24 25  1  0  0  0
 24 47  1  0  0  0
 25 26  2  0  0  0
 25 28  1  0  0  0
 26 27  1  0  0  0
 28 29  2  0  0  0
 28 33  1  0  0  0
 29 30  1  0  0  0
 29 34  1  0  0  0
 30 31  2  0  0  0
 30 48  1  0  0  0
 31 32  1  0  0  0
 31 49  1  0  0  0
 32 33  2  0  0  0
 32 50  1  0  0  0
 33 51  1  0  0  0
M  CHG  1   9   1
M  CHG  1  19  -1
M  CHG  1  23  -1
M  CHG  1  27  -1
M  END
$$$$
