696
  CCTOOLS-0919241039

 42 45  0  0  0  0  0  0  0  0999 V2000
   -4.9660    0.3990   -0.0260 C   0  0  0  0  0
   -4.5040    1.4540    0.7730 C   0  0  0  0  0
   -3.1860    1.5440    1.1130 C   0  0  0  0  0
   -2.2790    0.5850    0.6680 C   0  0  0  0  0
   -2.7310   -0.4820   -0.1360 C   0  0  0  0  0
   -4.0800   -0.5730   -0.4770 C   0  0  0  0  0
   -6.3970    0.3170   -0.3840 C   0  0  0  0  0
   -6.8370   -0.6850   -1.1440 N   0  0  0  0  0
   -7.2480    1.2450    0.0520 N   0  3  0  0  0
   -0.9250    0.4200    0.8460 N   0  0  0  0  0
   -1.5550   -1.3000   -0.4300 C   0  0  0  0  0
   -0.5000   -0.7100    0.1850 C   0  0  0  0  0
    0.8920   -1.2050    0.1520 C   0  0  0  0  0
    1.1520   -2.5730    0.2430 C   0  0  0  0  0
    2.4520   -3.0360    0.2120 C   0  0  0  0  0
    3.5060   -2.1510    0.0900 C   0  0  0  0  0
    3.2660   -0.7820   -0.0030 C   0  0  0  0  0
    1.9540   -0.3040    0.0220 C   0  0  0  0  0
    1.7110    1.0290   -0.0680 O   0  5  0  0  0
    4.4000    0.1650   -0.1330 C   0  0  0  0  0
    5.4790    0.0890    0.7460 C   0  0  0  0  0
    6.5320    0.9720    0.6200 C   0  0  0  0  0
    6.5170    1.9320   -0.3760 C   0  0  0  0  0
    5.4490    2.0130   -1.2500 C   0  0  0  0  0
    4.3930    1.1310   -1.1370 C   0  0  0  0  0
   -5.1980    2.2030    1.1230 H   0  0  0  0  0
   -2.8440    2.3620    1.7290 H   0  0  0  0  0
   -4.4320   -1.3900   -1.0890 H   0  0  0  0  0
   -7.7770   -0.7390   -1.3790 H   0  0  0  0  0
   -6.2180   -1.3610   -1.4610 H   0  0  0  0  0
   -6.9270    1.9750    0.6050 H   0  0  0  0  0
   -8.1860    1.1930   -0.1860 H   0  0  0  0  0
   -0.3550    1.0120    1.3610 H   0  0  0  0  0
   -1.5310   -2.2010   -1.0250 H   0  0  0  0  0
    0.3340   -3.2710    0.3390 H   0  0  0  0  0
    2.6460   -4.0960    0.2830 H   0  0  0  0  0
    4.5200   -2.5220    0.0660 H   0  0  0  0  0
    5.4920   -0.6600    1.5240 H   0  0  0  0  0
    7.3690    0.9140    1.3000 H   0  0  0  0  0
    7.3430    2.6220   -0.4700 H   0  0  0  0  0
    5.4420    2.7650   -2.0250 H   0  0  0  0  0
    3.5590    1.1950   -1.8210 H   0  0  0  0  0
  1  2  2  0  0  0
  1  6  1  0  0  0
  1  7  1  0  0  0
  2  3  1  0  0  0
  2 26  1  0  0  0
  3  4  2  0  0  0
  3 27  1  0  0  0
  4  5  1  0  0  0
  4 10  1  0  0  0
  5  6  2  0  0  0
  5 11  1  0  0  0
  6 28  1  0  0  0
  7  8  1  0  0  0
  7  9  2  0  0  0
  8 29  1  0  0  0
  8 30  1  0  0  0
  9 31  1  0  0  0
  9 32  1  0  0  0
 10 12  1  0  0  0
 10 33  1  0  0  0
 11 12  2  0  0  0
 11 34  1  0  0  0
 12 13  1  0  0  0
 13 14  2  0  0  0
 13 18  1  0  0  0
 14 15  1  0  0  0
 14 35  1  0  0  0
 15 16  2  0  0  0
 15 36  1  0  0  0
 16 17  1  0  0  0
 16 37  1  0  0  0
 17 18  2  0  0  0
 17 20  1  0  0  0
 18 19  1  0  0  0
 20 21  2  0  0  0
 20 25  1  0  0  0
 21 22  1  0  0  0
 21 38  1  0  0  0
 22 23  2  0  0  0
 22 39  1  0  0  0
 23 24  1  0  0  0
 23 40  1  0  0  0
 24 25  2  0  0  0
 24 41  1  0  0  0
 25 42  1  0  0  0
M  CHG  1   9   1
M  CHG  1  19  -1
M  END
$$$$
