6VZ
  CCTOOLS-0919241043

 73 77  0  0  1  0  0  0  0  0999 V2000
    2.6150   -2.7500    0.5640 C   0  0  0  0  0
    1.0950   -3.0100    0.4170 C   0  0  0  0  0
    0.4970   -1.8210    1.2140 C   0  0  0  0  0
    5.1070    2.9320    0.0230 C   0  0  0  0  0
    5.0840    1.5500   -0.0500 C   0  0  0  0  0
    3.8980    0.8620    0.2110 C   0  0  0  0  0
    2.7440    1.5720    0.5440 C   0  0  0  0  0
    3.8650   -0.6140    0.1340 C   0  0  0  0  0
    7.4080    2.8250   -0.5650 C   0  0  0  0  0
    3.9850    5.1350    0.4400 C   0  0  0  0  0
    4.3720   -5.3450   -1.6350 C   0  0  0  0  0
   -1.7290   -2.6670    0.7860 C   0  0  0  0  0
   -2.6460    0.1530    0.7280 C   0  0  0  0  0
   -1.4310   -0.3790    1.4910 C   0  0  0  0  0
   -3.5540   -0.9860    0.3550 C   0  0  0  0  0
   -3.1280   -2.2940    0.3780 C   0  0  0  0  0
   -5.2140   -2.9700   -0.3290 C   0  0  0  0  0
    1.4810   -0.6720    0.9100 C   0  0  0  0  0
    2.7540   -1.2830    0.5030 N   0  0  0  0  0
    3.3700   -3.3960   -0.5690 C   0  0  0  0  0
    3.6380   -4.7160   -0.5340 N   0  0  0  0  0
    3.7360   -2.7280   -1.5130 O   0  0  0  0  0
    2.7790    2.9500    0.6140 C   0  0  0  0  0
    3.9550    3.6300    0.3610 C   0  0  0  0  0
    4.8380   -1.2250   -0.2620 O   0  0  0  0  0
    6.2600    3.6060   -0.2290 O   0  0  0  0  0
    3.8990    5.6980   -0.9140 N   0  0  0  0  0
   -0.8500   -1.4950    0.7260 N   0  0  0  0  0
   -3.9790   -3.2540    0.0300 N   0  0  0  0  0
   -5.6610   -1.7310   -0.3620 N   0  0  0  0  0
   -4.8680   -0.7180   -0.0300 C   0  0  0  0  0
   -5.3290    0.5560   -0.0650 O   0  0  0  0  0
   -6.6860    0.7440   -0.4700 C   0  0  0  0  0
   -7.0230    2.2370   -0.4480 C   0  0  0  0  0
   -8.4760    2.4380   -0.8820 C   0  0  0  0  0
   -8.9740    3.8770   -1.0380 C   0  0  0  0  0
   -9.4450    3.0290    0.1450 C   0  0  0  0  0
    2.9740   -3.1250    1.5230 H   0  0  0  0  0
    0.7920   -2.9720   -0.6290 H   0  0  0  0  0
    0.8170   -3.9630    0.8690 H   0  0  0  0  0
    0.4790   -2.0420    2.2810 H   0  0  0  0  0
    5.9800    1.0060   -0.3090 H   0  0  0  0  0
    1.8240    1.0440    0.7460 H   0  0  0  0  0
    8.2580    3.4840   -0.7420 H   0  0  0  0  0
    7.6400    2.1470    0.2570 H   0  0  0  0  0
    7.2040    2.2460   -1.4660 H   0  0  0  0  0
    3.1390    5.4840    1.0330 H   0  0  0  0  0
    4.9150    5.4560    0.9090 H   0  0  0  0  0
    4.4930   -6.4080   -1.4310 H   0  0  0  0  0
    3.8160   -5.2140   -2.5630 H   0  0  0  0  0
    5.3530   -4.8790   -1.7300 H   0  0  0  0  0
   -1.7420   -3.0570    1.8040 H   0  0  0  0  0
   -1.3500   -3.4370    0.1130 H   0  0  0  0  0
   -3.1890    0.8580    1.3580 H   0  0  0  0  0
   -2.3120    0.6600   -0.1770 H   0  0  0  0  0
   -0.6910    0.4140    1.6000 H   0  0  0  0  0
   -1.7420   -0.7290    2.4750 H   0  0  0  0  0
   -5.8780   -3.7750   -0.6050 H   0  0  0  0  0
    1.0910   -0.0540    0.1010 H   0  0  0  0  0
    1.6280   -0.0640    1.8030 H   0  0  0  0  0
    3.3460   -5.2510    0.2210 H   0  0  0  0  0
    1.8850    3.4980    0.8720 H   0  0  0  0  0
    3.0770    5.3630   -1.3940 H   0  0  0  0  0
    3.9170    6.7060   -0.8880 H   0  0  0  0  0
   -6.8210    0.3570   -1.4800 H   0  0  0  0  0
   -7.3470    0.2130    0.2140 H   0  0  0  0  0
   -6.8880    2.6240    0.5620 H   0  0  0  0  0
   -6.3620    2.7690   -1.1320 H   0  0  0  0  0
   -8.8680    1.6920   -1.5730 H   0  0  0  0  0
   -8.2660    4.6790   -0.8320 H   0  0  0  0  0
   -9.6930    4.0770   -1.8320 H   0  0  0  0  0
  -10.4740    2.6710    0.1290 H   0  0  0  0  0
   -9.0470    3.2730    1.1300 H   0  0  0  0  0
  1  2  1  0  0  0
  1 19  1  0  0  0
  1 38  1  0  0  0
  2  3  1  0  0  0
  2 39  1  0  0  0
  2 40  1  0  0  0
  3 18  1  0  0  0
  3 28  1  0  0  0
  3 41  1  0  0  0
  4 26  1  0  0  0
  5  4  2  0  0  0
  5 42  1  0  0  0
  6  5  1  0  0  0
  7  6  2  0  0  0
  7 23  1  0  0  0
  7 43  1  0  0  0
  8 19  1  0  0  0
  8  6  1  0  0  0
  9 44  1  0  0  0
  9 45  1  0  0  0
  9 46  1  0  0  0
 10 27  1  0  0  0
 10 47  1  0  0  0
 10 48  1  0  0  0
 11 21  1  0  0  0
 11 49  1  0  0  0
 11 50  1  0  0  0
 11 51  1  0  0  0
 12 28  1  0  0  0
 12 16  1  0  0  0
 12 52  1  0  0  0
 12 53  1  0  0  0
 13 54  1  0  0  0
 13 55  1  0  0  0
 14 13  1  0  0  0
 14 56  1  0  0  0
 14 57  1  0  0  0
 15 31  2  0  0  0
 15 13  1  0  0  0
 16 15  1  0  0  0
 17 30  2  0  0  0
 17 58  1  0  0  0
 18 59  1  0  0  0
 18 60  1  0  0  0
 19 18  1  0  0  0
 20  1  1  0  0  0
 20 22  2  0  0  0
 21 20  1  0  0  0
 21 61  1  0  0  0
 23 24  2  0  0  0
 23 62  1  0  0  0
 24  4  1  0  0  0
 24 10  1  0  0  0
 25  8  2  0  0  0
 26  9  1  0  0  0
 27 63  1  0  0  0
 27 64  1  0  0  0
 28 14  1  0  0  0
 29 16  2  0  0  0
 29 17  1  0  0  0
 30 31  1  0  0  0
 31 32  1  0  0  0
 32 33  1  0  0  0
 33 34  1  0  0  0
 33 65  1  0  0  0
 33 66  1  0  0  0
 34 67  1  0  0  0
 34 68  1  0  0  0
 35 34  1  0  0  0
 35 36  1  0  0  0
 35 69  1  0  0  0
 36 70  1  0  0  0
 36 71  1  0  0  0
 37 35  1  0  0  0
 37 36  1  0  0  0
 37 72  1  0  0  0
 37 73  1  0  0  0
M  END
$$$$
