6W4
  CCTOOLS-0919241043

 74 79  0  0  1  0  0  0  0  0999 V2000
    2.3050    2.8880    0.9130 N   0  0  0  0  0
    2.7940    4.9180    0.6050 N   0  0  0  0  0
    2.9560    4.3150   -0.5780 C   0  0  0  0  0
    2.6460    3.0110   -0.3910 C   0  0  0  0  0
    3.3960    4.9610   -1.8660 C   0  0  0  0  0
    1.8920    1.6500    1.5790 C   0  0  0  0  0
    2.5040    0.4120    0.8790 C   0  0  0  0  0
    0.2620   -0.1390    1.5060 C   0  0  0  0  0
   -0.7510   -0.6560    0.5180 C   0  0  0  0  0
    2.4100    4.0440    1.4680 N   0  0  0  0  0
    4.8840    4.8980   -2.2160 C   0  0  0  0  0
    3.8790    4.0410   -2.9890 C   0  0  0  0  0
    1.5880   -0.6970    1.2020 N   0  0  0  0  0
    0.3730    1.3960    1.3890 C   0  0  0  0  0
   -0.3820   -1.1350   -0.5340 O   0  0  0  0  0
   -2.0660   -0.5870    0.8030 N   0  0  0  0  0
   -3.0510   -1.0900   -0.1590 C   0  0  0  0  0
   -4.4600   -0.8940    0.4050 C   0  0  0  0  0
   -4.7480    0.5790    0.5360 C   0  0  0  0  0
   -5.1810    1.0940    1.7440 C   0  0  0  0  0
   -5.4450    2.4450    1.8640 C   0  0  0  0  0
   -5.2760    3.2820    0.7770 C   0  0  0  0  0
   -4.8420    2.7680   -0.4310 C   0  0  0  0  0
   -4.5730    1.4170   -0.5500 C   0  0  0  0  0
   -5.4650   -1.5210   -0.5260 C   0  0  0  0  0
   -5.4480   -1.2100   -1.8730 C   0  0  0  0  0
   -6.3710   -1.7850   -2.7270 C   0  0  0  0  0
   -7.3090   -2.6730   -2.2340 C   0  0  0  0  0
   -7.3260   -2.9850   -0.8880 C   0  0  0  0  0
   -6.4000   -2.4130   -0.0350 C   0  0  0  0  0
    1.9120   -2.0050    1.2160 C   0  0  0  0  0
    1.1100   -2.8250    1.6200 O   0  0  0  0  0
    3.2410   -2.4430    0.7410 C   0  0  0  0  0
    3.7360   -3.6980    1.0990 C   0  0  0  0  0
    4.9770   -4.1000    0.6520 C   0  0  0  0  0
    5.7320   -3.2630   -0.1500 C   0  0  0  0  0
    5.2480   -2.0170   -0.5080 C   0  0  0  0  0
    4.0060   -1.6050   -0.0720 C   0  0  0  0  0
    7.0880   -3.7080   -0.6340 C   0  0  0  0  0
    6.9440   -4.4050   -1.9190 N   0  0  0  0  0
    2.6680    2.2260   -1.1320 H   0  0  0  0  0
    2.8500    5.8600   -2.1520 H   0  0  0  0  0
    2.1550    1.6720    2.6370 H   0  0  0  0  0
    2.5460    0.5670   -0.1990 H   0  0  0  0  0
    3.5000    0.2080    1.2720 H   0  0  0  0  0
   -0.0330   -0.4150    2.5190 H   0  0  0  0  0
    5.3170    5.7540   -2.7320 H   0  0  0  0  0
    5.5450    4.3880   -1.5140 H   0  0  0  0  0
    3.8790    2.9680   -2.7960 H   0  0  0  0  0
    3.6510    4.3350   -4.0140 H   0  0  0  0  0
   -0.2010    1.8860    2.1760 H   0  0  0  0  0
    0.0460    1.7320    0.4050 H   0  0  0  0  0
   -2.3610   -0.2040    1.6430 H   0  0  0  0  0
   -2.9550   -0.5440   -1.0970 H   0  0  0  0  0
   -2.8750   -2.1510   -0.3370 H   0  0  0  0  0
   -4.5280   -1.3670    1.3850 H   0  0  0  0  0
   -5.3130    0.4400    2.5930 H   0  0  0  0  0
   -5.7850    2.8480    2.8070 H   0  0  0  0  0
   -5.4840    4.3380    0.8700 H   0  0  0  0  0
   -4.7100    3.4210   -1.2800 H   0  0  0  0  0
   -4.2310    1.0150   -1.4920 H   0  0  0  0  0
   -4.7150   -0.5160   -2.2580 H   0  0  0  0  0
   -6.3580   -1.5410   -3.7790 H   0  0  0  0  0
   -8.0300   -3.1220   -2.9020 H   0  0  0  0  0
   -8.0590   -3.6780   -0.5030 H   0  0  0  0  0
   -6.4110   -2.6600    1.0170 H   0  0  0  0  0
    3.1480   -4.3520    1.7250 H   0  0  0  0  0
    5.3600   -5.0710    0.9280 H   0  0  0  0  0
    5.8420   -1.3680   -1.1340 H   0  0  0  0  0
    3.6290   -0.6320   -0.3530 H   0  0  0  0  0
    7.7320   -2.8390   -0.7620 H   0  0  0  0  0
    7.5310   -4.3840    0.0980 H   0  0  0  0  0
    6.4760   -3.8220   -2.5960 H   0  0  0  0  0
    7.8400   -4.7150   -2.2650 H   0  0  0  0  0
  1  6  1  0  0  0
  1  4  1  0  0  0
  2 10  2  0  0  0
  2  3  1  0  0  0
  3  5  1  0  0  0
  3  4  2  0  0  0
  4 41  1  0  0  0
  5 11  1  0  0  0
  5 12  1  0  0  0
  5 42  1  0  0  0
  6 14  1  0  0  0
  6 43  1  0  0  0
  7 13  1  0  0  0
  7  6  1  0  0  0
  7 44  1  0  0  0
  7 45  1  0  0  0
  8  9  1  0  0  0
  8 46  1  0  0  0
  9 16  1  0  0  0
 10  1  1  0  0  0
 11 12  1  0  0  0
 11 47  1  0  0  0
 11 48  1  0  0  0
 12 49  1  0  0  0
 12 50  1  0  0  0
 13  8  1  0  0  0
 14  8  1  0  0  0
 14 51  1  0  0  0
 14 52  1  0  0  0
 15  9  2  0  0  0
 16 17  1  0  0  0
 16 53  1  0  0  0
 17 18  1  0  0  0
 17 54  1  0  0  0
 17 55  1  0  0  0
 18 25  1  0  0  0
 18 56  1  0  0  0
 19 18  1  0  0  0
 19 24  2  0  0  0
 20 19  1  0  0  0
 20 57  1  0  0  0
 21 20  2  0  0  0
 21 22  1  0  0  0
 21 58  1  0  0  0
 22 23  2  0  0  0
 22 59  1  0  0  0
 23 24  1  0  0  0
 23 60  1  0  0  0
 24 61  1  0  0  0
 25 30  2  0  0  0
 25 26  1  0  0  0
 26 27  2  0  0  0
 26 62  1  0  0  0
 27 28  1  0  0  0
 27 63  1  0  0  0
 28 64  1  0  0  0
 29 28  2  0  0  0
 29 65  1  0  0  0
 30 29  1  0  0  0
 30 66  1  0  0  0
 31 13  1  0  0  0
 31 32  2  0  0  0
 33 31  1  0  0  0
 34 33  2  0  0  0
 34 67  1  0  0  0
 35 34  1  0  0  0
 35 68  1  0  0  0
 36 35  2  0  0  0
 36 37  1  0  0  0
 37 38  2  0  0  0
 37 69  1  0  0  0
 38 33  1  0  0  0
 38 70  1  0  0  0
 39 36  1  0  0  0
 39 71  1  0  0  0
 39 72  1  0  0  0
 40 39  1  0  0  0
 40 73  1  0  0  0
 40 74  1  0  0  0
M  END
$$$$
