6WH
  CCTOOLS-0919241043

 78 83  0  0  1  0  0  0  0  0999 V2000
   -2.7890    3.8580    0.3960 C   0  0  0  0  0
   -5.1540    0.8600    0.1020 C   0  0  0  0  0
   -5.0020    0.0960    1.2430 C   0  0  0  0  0
   -5.3960   -1.2290    1.2460 C   0  0  0  0  0
   -5.9430   -1.7890    0.1060 C   0  0  0  0  0
   -6.0960   -1.0250   -1.0350 C   0  0  0  0  0
   -5.7070    0.3020   -1.0350 C   0  0  0  0  0
    1.7510    1.3920   -0.8720 C   0  0  0  0  0
    3.1280    1.1880   -0.3730 C   0  0  0  0  0
    4.1250    2.1170   -0.6700 C   0  0  0  0  0
    1.5250   -6.4930    1.5800 C   0  0  0  0  0
    0.2830   -1.8650   -1.7250 C   0  0  0  0  0
    1.3060   -1.0790   -0.8670 C   0  0  0  0  0
   -0.4920    0.4060   -1.4020 C   0  0  0  0  0
   -1.0130   -1.0440   -1.4930 C   0  0  0  0  0
   -1.2600    1.1600   -0.3470 C   0  0  0  0  0
   -3.2260    2.3910    0.3990 C   0  0  0  0  0
    0.1300   -3.2370   -1.2350 N   0  0  0  0  0
   -0.2110   -4.2570   -1.9430 N   0  0  0  0  0
   -0.2520   -5.3120   -1.2090 N   0  0  0  0  0
    0.0760   -4.9810    0.0450 C   0  0  0  0  0
    0.3280   -3.6510    0.0380 C   0  0  0  0  0
    0.1550   -5.9070    1.2310 C   0  0  0  0  0
    0.9070   -5.4100    2.4670 C   0  0  0  0  0
    0.9290    0.3360   -1.0330 N   0  0  0  0  0
   -0.7780    1.3200    0.7550 O   0  0  0  0  0
   -2.4800    1.6580   -0.6270 N   0  0  0  0  0
   -4.7240    2.3050    0.1000 C   0  0  0  0  0
   -5.5030    3.0700    1.1710 C   0  0  0  0  0
   -5.0660    4.5370    1.1680 C   0  0  0  0  0
   -3.5680    4.6230    1.4670 C   0  0  0  0  0
    1.3610    2.5130   -1.1370 O   0  0  0  0  0
    5.4130    1.9190   -0.1990 C   0  0  0  0  0
    5.7080    0.7980    0.5640 C   0  0  0  0  0
    4.7210   -0.1240    0.8590 C   0  0  0  0  0
    3.4340    0.0670    0.4010 C   0  0  0  0  0
    7.1110    0.5850    1.0740 C   0  0  0  0  0
    7.3290    1.4130    2.2680 N   0  0  0  0  0
    6.3870    2.8220   -0.4860 O   0  0  0  0  0
    6.0130    3.9510   -1.2770 C   0  0  0  0  0
   -1.7220    3.9190    0.6090 H   0  0  0  0  0
   -2.9900    4.2950   -0.5820 H   0  0  0  0  0
   -4.5740    0.5330    2.1340 H   0  0  0  0  0
   -5.2760   -1.8270    2.1370 H   0  0  0  0  0
   -6.2500   -2.8250    0.1080 H   0  0  0  0  0
   -6.5240   -1.4620   -1.9250 H   0  0  0  0  0
   -5.8300    0.9000   -1.9260 H   0  0  0  0  0
    3.8940    2.9880   -1.2650 H   0  0  0  0  0
    1.5520   -7.5100    1.9720 H   0  0  0  0  0
    2.3690   -6.2090    0.9520 H   0  0  0  0  0
    0.5680   -1.8570   -2.7770 H   0  0  0  0  0
    1.2280   -1.3720    0.1800 H   0  0  0  0  0
    2.3180   -1.2480   -1.2350 H   0  0  0  0  0
   -0.6040    0.9010   -2.3660 H   0  0  0  0  0
   -1.6960   -1.1560   -2.3360 H   0  0  0  0  0
   -1.4960   -1.3400   -0.5620 H   0  0  0  0  0
   -3.0250    1.9540    1.3770 H   0  0  0  0  0
    0.6260   -3.0430    0.8790 H   0  0  0  0  0
   -0.7190   -6.5390    1.3940 H   0  0  0  0  0
    0.5290   -5.7140    3.4430 H   0  0  0  0  0
    1.3450   -4.4130    2.4220 H   0  0  0  0  0
   -2.8650    1.5300   -1.5080 H   0  0  0  0  0
   -4.9250    2.7420   -0.8780 H   0  0  0  0  0
   -6.5700    3.0090    0.9580 H   0  0  0  0  0
   -5.3020    2.6330    2.1490 H   0  0  0  0  0
   -5.2670    4.9740    0.1910 H   0  0  0  0  0
   -5.6210    5.0820    1.9320 H   0  0  0  0  0
   -3.3670    4.1860    2.4450 H   0  0  0  0  0
   -3.2570    5.6680    1.4660 H   0  0  0  0  0
    4.9570   -0.9940    1.4540 H   0  0  0  0  0
    2.6650   -0.6550    0.6330 H   0  0  0  0  0
    7.2490   -0.4650    1.3300 H   0  0  0  0  0
    7.8250    0.8680    0.3010 H   0  0  0  0  0
    6.6380    1.2150    2.9760 H   0  0  0  0  0
    8.2630    1.2880    2.6290 H   0  0  0  0  0
    6.8820    4.5910   -1.4320 H   0  0  0  0  0
    5.6360    3.6110   -2.2420 H   0  0  0  0  0
    5.2340    4.5140   -0.7620 H   0  0  0  0  0
  1 31  1  0  0  0
  1 41  1  0  0  0
  1 42  1  0  0  0
  2 28  1  0  0  0
  2  7  2  0  0  0
  3  2  1  0  0  0
  3 43  1  0  0  0
  4  3  2  0  0  0
  4  5  1  0  0  0
  4 44  1  0  0  0
  5  6  2  0  0  0
  5 45  1  0  0  0
  6  7  1  0  0  0
  6 46  1  0  0  0
  7 47  1  0  0  0
  8 25  1  0  0  0
  8 32  2  0  0  0
  9  8  1  0  0  0
 10  9  2  0  0  0
 10 48  1  0  0  0
 11 24  1  0  0  0
 11 49  1  0  0  0
 11 50  1  0  0  0
 12 15  1  0  0  0
 12 51  1  0  0  0
 13 25  1  0  0  0
 13 12  1  0  0  0
 13 52  1  0  0  0
 13 53  1  0  0  0
 14 15  1  0  0  0
 14 16  1  0  0  0
 14 54  1  0  0  0
 15 55  1  0  0  0
 15 56  1  0  0  0
 16 27  1  0  0  0
 17  1  1  0  0  0
 17 28  1  0  0  0
 17 57  1  0  0  0
 18 12  1  0  0  0
 18 22  1  0  0  0
 19 18  1  0  0  0
 20 19  2  0  0  0
 20 21  1  0  0  0
 21 23  1  0  0  0
 21 22  2  0  0  0
 22 58  1  0  0  0
 23 11  1  0  0  0
 23 24  1  0  0  0
 23 59  1  0  0  0
 24 60  1  0  0  0
 24 61  1  0  0  0
 25 14  1  0  0  0
 26 16  2  0  0  0
 27 17  1  0  0  0
 27 62  1  0  0  0
 28 29  1  0  0  0
 28 63  1  0  0  0
 29 30  1  0  0  0
 29 64  1  0  0  0
 29 65  1  0  0  0
 30 66  1  0  0  0
 30 67  1  0  0  0
 31 30  1  0  0  0
 31 68  1  0  0  0
 31 69  1  0  0  0
 33 10  1  0  0  0
 34 33  2  0  0  0
 34 35  1  0  0  0
 35 36  2  0  0  0
 35 70  1  0  0  0
 36  9  1  0  0  0
 36 71  1  0  0  0
 37 34  1  0  0  0
 37 72  1  0  0  0
 37 73  1  0  0  0
 38 37  1  0  0  0
 38 74  1  0  0  0
 38 75  1  0  0  0
 39 40  1  0  0  0
 39 33  1  0  0  0
 40 76  1  0  0  0
 40 77  1  0  0  0
 40 78  1  0  0  0
M  END
$$$$
