711
  CCTOOLS-0919241044

 65 69  0  0  0  0  0  0  0  0999 V2000
   -8.4840   -0.4710   -0.6400 N   0  0  0  0  0
   -8.1270    0.5910    0.0250 C   0  0  0  0  0
   -9.0790    1.3580    0.6610 N   0  0  0  0  0
   -6.6990    0.9740    0.0960 C   0  0  0  0  0
   -5.7480    0.2000   -0.5440 C   0  0  0  0  0
   -4.3960    0.5680   -0.4720 C   0  0  0  0  0
   -3.4010   -0.1900   -1.1140 C   0  0  0  0  0
   -2.0980    0.1910   -1.0200 C   0  0  0  0  0
   -1.7340    1.3310   -0.3050 C   0  0  0  0  0
   -2.6700    2.0910    0.3260 C   0  0  0  0  0
   -4.0260    1.7270    0.2560 C   0  0  0  0  0
   -5.0170    2.4930    0.8960 C   0  0  0  0  0
   -6.3200    2.1210    0.8150 C   0  0  0  0  0
   -1.0330   -0.6270   -1.7050 C   0  0  0  0  0
   -0.5410   -1.6560   -0.7850 N   0  3  0  0  0
   -1.0340   -2.8540   -0.6680 C   0  0  0  0  0
   -2.1980   -3.3900   -1.4610 C   0  0  0  0  0
   -0.3460   -3.5530    0.2730 N   0  0  0  0  0
    0.6400   -2.7180    0.7660 C   0  0  0  0  0
    1.6350   -2.8610    1.7230 C   0  0  0  0  0
    2.4840   -1.8100    1.9930 C   0  0  0  0  0
    2.3510   -0.6040    1.3120 C   0  0  0  0  0
    1.3630   -0.4430    0.3610 C   0  0  0  0  0
    0.4990   -1.5030    0.0750 C   0  0  0  0  0
    3.1960    0.4250    1.5890 O   0  0  0  0  0
    4.1240    0.5010    0.5050 C   0  0  0  0  0
    5.2790   -0.4720    0.7540 C   0  0  0  0  0
    6.2540   -0.4150   -0.4310 C   0  0  0  0  0
    6.6720    0.9800   -0.6260 N   0  0  0  0  0
    5.6380    2.0120   -0.7860 C   0  0  0  0  0
    4.6690    1.9260    0.3990 C   0  0  0  0  0
    8.0000    1.3120   -0.6640 C   0  0  0  0  0
    8.3550    2.5540   -0.7310 N   0  0  0  0  0
    9.0490    0.2300   -0.6260 C   0  0  0  0  0
   -9.4200   -0.7220   -0.6870 H   0  0  0  0  0
   -8.8130    2.1490    1.1560 H   0  0  0  0  0
  -10.0150    1.1070    0.6140 H   0  0  0  0  0
   -6.0440   -0.6810   -1.0950 H   0  0  0  0  0
   -3.6680   -1.0730   -1.6760 H   0  0  0  0  0
   -0.6930    1.6140   -0.2490 H   0  0  0  0  0
   -2.3730    2.9710    0.8770 H   0  0  0  0  0
   -4.7410    3.3760    1.4530 H   0  0  0  0  0
   -7.0750    2.7130    1.3090 H   0  0  0  0  0
   -0.2090    0.0230   -1.9980 H   0  0  0  0  0
   -1.4540   -1.1030   -2.5910 H   0  0  0  0  0
   -3.1270   -3.1820   -0.9290 H   0  0  0  0  0
   -2.2250   -2.9080   -2.4390 H   0  0  0  0  0
   -2.0860   -4.4660   -1.5890 H   0  0  0  0  0
   -0.5150   -4.4680    0.5480 H   0  0  0  0  0
    1.7440   -3.7950    2.2550 H   0  0  0  0  0
    3.2580   -1.9230    2.7380 H   0  0  0  0  0
    1.2600    0.4960   -0.1610 H   0  0  0  0  0
    3.6200    0.2350   -0.4240 H   0  0  0  0  0
    5.7990   -0.1920    1.6700 H   0  0  0  0  0
    4.8870   -1.4840    0.8530 H   0  0  0  0  0
    5.7590   -0.7820   -1.3300 H   0  0  0  0  0
    7.1280   -1.0300   -0.2160 H   0  0  0  0  0
    6.1040    2.9970   -0.8060 H   0  0  0  0  0
    5.0940    1.8430   -1.7150 H   0  0  0  0  0
    5.1950    2.1840    1.3180 H   0  0  0  0  0
    3.8440    2.6210    0.2440 H   0  0  0  0  0
    7.6820    3.2460   -0.8310 H   0  0  0  0  0
    9.3180    0.0210    0.4090 H   0  0  0  0  0
    8.6540   -0.6740   -1.0890 H   0  0  0  0  0
    9.9330    0.5620   -1.1710 H   0  0  0  0  0
  1  2  2  0  0  0
  1 35  1  0  0  0
  2  3  1  0  0  0
  2  4  1  0  0  0
  3 36  1  0  0  0
  3 37  1  0  0  0
  4  5  2  0  0  0
  4 13  1  0  0  0
  5  6  1  0  0  0
  5 38  1  0  0  0
  6  7  2  0  0  0
  6 11  1  0  0  0
  7  8  1  0  0  0
  7 39  1  0  0  0
  8  9  2  0  0  0
  8 14  1  0  0  0
  9 10  1  0  0  0
  9 40  1  0  0  0
 10 11  2  0  0  0
 10 41  1  0  0  0
 11 12  1  0  0  0
 12 13  2  0  0  0
 12 42  1  0  0  0
 13 43  1  0  0  0
 14 15  1  0  0  0
 14 44  1  0  0  0
 14 45  1  0  0  0
 15 16  2  0  0  0
 15 24  1  0  0  0
 16 17  1  0  0  0
 16 18  1  0  0  0
 17 46  1  0  0  0
 17 47  1  0  0  0
 17 48  1  0  0  0
 18 19  1  0  0  0
 18 49  1  0  0  0
 19 20  2  0  0  0
 19 24  1  0  0  0
 20 21  1  0  0  0
 20 50  1  0  0  0
 21 22  2  0  0  0
 21 51  1  0  0  0
 22 23  1  0  0  0
 22 25  1  0  0  0
 23 24  2  0  0  0
 23 52  1  0  0  0
 25 26  1  0  0  0
 26 27  1  0  0  0
 26 31  1  0  0  0
 26 53  1  0  0  0
 27 28  1  0  0  0
 27 54  1  0  0  0
 27 55  1  0  0  0
 28 29  1  0  0  0
 28 56  1  0  0  0
 28 57  1  0  0  0
 29 30  1  0  0  0
 29 32  1  0  0  0
 30 31  1  0  0  0
 30 58  1  0  0  0
 30 59  1  0  0  0
 31 60  1  0  0  0
 31 61  1  0  0  0
 32 33  2  0  0  0
 32 34  1  0  0  0
 33 62  1  0  0  0
 34 63  1  0  0  0
 34 64  1  0  0  0
 34 65  1  0  0  0
M  CHG  1  15   1
M  END
$$$$
