762
  CCTOOLS-1004241125

 41 44  0  0  0  0  0  0  0  0999 V2000
   -4.1000    0.7670    0.2680 C   0  0  0  0  0
   -4.3920   -0.4250   -0.4080 C   0  0  0  0  0
   -6.0230   -0.7650   -0.8960 CL  0  0  0  0  0
   -3.3890   -1.3230   -0.6970 C   0  0  0  0  0
   -2.0830   -1.0560   -0.3070 C   0  0  0  0  0
   -1.7780    0.1360    0.3770 C   0  0  0  0  0
   -2.7960    1.0460    0.6630 C   0  0  0  0  0
   -5.1820    1.7280    0.5680 C   0  0  0  0  0
   -6.2510    1.3330    1.2580 N   0  0  0  0  0
   -5.0880    2.9890    0.1490 N   0  3  0  0  0
   -0.8910   -1.7380   -0.4400 N   0  0  0  0  0
   -0.4440    0.1260    0.6250 N   0  0  0  0  0
    0.0830   -0.9740    0.1470 C   0  0  0  0  0
    1.5130   -1.3360    0.2270 C   0  0  0  0  0
    1.8880   -2.6550    0.4890 C   0  0  0  0  0
    3.2240   -2.9940    0.5640 C   0  0  0  0  0
    4.2010   -2.0340    0.3810 C   0  0  0  0  0
    3.8450   -0.7130    0.1200 C   0  0  0  0  0
    2.4960   -0.3600    0.0360 C   0  0  0  0  0
    2.1410    0.9250   -0.2180 O   0  5  0  0  0
    4.8970    0.3150   -0.0750 C   0  0  0  0  0
    5.9330    0.4390    0.8480 C   0  0  0  0  0
    6.9090    1.3980    0.6620 C   0  0  0  0  0
    6.8580    2.2340   -0.4390 C   0  0  0  0  0
    5.8320    2.1160   -1.3580 C   0  0  0  0  0
    4.8550    1.1570   -1.1850 C   0  0  0  0  0
   -3.6190   -2.2380   -1.2220 H   0  0  0  0  0
   -2.5720    1.9640    1.1870 H   0  0  0  0  0
   -6.9960    1.9410    1.3890 H   0  0  0  0  0
   -6.2860    0.4370    1.6290 H   0  0  0  0  0
   -4.3090    3.2770   -0.3530 H   0  0  0  0  0
   -5.8000    3.6190    0.3420 H   0  0  0  0  0
   -0.7660   -2.5990   -0.8690 H   0  0  0  0  0
    1.1310   -3.4120    0.6330 H   0  0  0  0  0
    3.5070   -4.0170    0.7670 H   0  0  0  0  0
    5.2430   -2.3090    0.4420 H   0  0  0  0  0
    5.9730   -0.2130    1.7080 H   0  0  0  0  0
    7.7120    1.4950    1.3770 H   0  0  0  0  0
    7.6240    2.9830   -0.5800 H   0  0  0  0  0
    5.7970    2.7720   -2.2150 H   0  0  0  0  0
    4.0540    1.0650   -1.9040 H   0  0  0  0  0
  1  2  2  0  0  0
  1  7  1  0  0  0
  1  8  1  0  0  0
  2  3  1  0  0  0
  2  4  1  0  0  0
  4  5  2  0  0  0
  4 27  1  0  0  0
  5  6  1  0  0  0
  5 11  1  0  0  0
  6  7  2  0  0  0
  6 12  1  0  0  0
  7 28  1  0  0  0
  8  9  1  0  0  0
  8 10  2  0  0  0
  9 29  1  0  0  0
  9 30  1  0  0  0
 10 31  1  0  0  0
 10 32  1  0  0  0
 11 13  1  0  0  0
 11 33  1  0  0  0
 12 13  2  0  0  0
 13 14  1  0  0  0
 14 15  2  0  0  0
 14 19  1  0  0  0
 15 16  1  0  0  0
 15 34  1  0  0  0
 16 17  2  0  0  0
 16 35  1  0  0  0
 17 18  1  0  0  0
 17 36  1  0  0  0
 18 19  2  0  0  0
 18 21  1  0  0  0
 19 20  1  0  0  0
 21 22  2  0  0  0
 21 26  1  0  0  0
 22 23  1  0  0  0
 22 37  1  0  0  0
 23 24  2  0  0  0
 23 38  1  0  0  0
 24 25  1  0  0  0
 24 39  1  0  0  0
 25 26  2  0  0  0
 25 40  1  0  0  0
 26 41  1  0  0  0
M  CHG  1  10   1
M  CHG  1  20  -1
M  END
$$$$
