780
  CCTOOLS-1004241125

 41 44  0  0  0  0  0  0  0  0999 V2000
    4.7590    0.4930   -0.0710 C   0  0  0  0  0
    4.9660   -0.7500   -0.6820 C   0  0  0  0  0
    3.9260   -1.6160   -0.8610 C   0  0  0  0  0
    2.6480   -1.2700   -0.4360 C   0  0  0  0  0
    2.4220   -0.0250    0.1810 C   0  0  0  0  0
    3.4890    0.8540    0.3660 C   0  0  0  0  0
    5.8940    1.4200    0.1150 C   0  0  0  0  0
    5.6990    2.6030    0.6970 N   0  0  0  0  0
    7.1120    1.0740   -0.2980 N   0  3  0  0  0
    1.4260   -1.9090   -0.4730 N   0  0  0  0  0
    1.1010    0.0370    0.4850 N   0  0  0  0  0
    0.5110   -1.0690    0.1020 C   0  0  0  0  0
   -0.9280   -1.3640    0.2670 C   0  0  0  0  0
   -1.3420   -2.6460    0.6360 C   0  0  0  0  0
   -2.6850   -2.9230    0.7890 C   0  0  0  0  0
   -3.6310   -1.9370    0.5800 C   0  0  0  0  0
   -3.2360   -0.6530    0.2130 C   0  0  0  0  0
   -1.8790   -0.3600    0.0590 C   0  0  0  0  0
   -1.4860    0.8890   -0.2990 O   0  5  0  0  0
   -4.2550    0.4030   -0.0110 C   0  0  0  0  0
   -5.3490    0.1550   -0.8380 C   0  0  0  0  0
   -6.2930    1.1410   -1.0420 C   0  0  0  0  0
   -6.1550    2.3730   -0.4280 C   0  0  0  0  0
   -5.0700    2.6240    0.3930 C   0  0  0  0  0
   -4.1230    1.6430    0.6100 C   0  0  0  0  0
    5.9560   -1.0250   -1.0150 H   0  0  0  0  0
    4.0960   -2.5720   -1.3330 H   0  0  0  0  0
    3.3300    1.8100    0.8430 H   0  0  0  0  0
    4.8120    2.8550    0.9970 H   0  0  0  0  0
    6.4450    3.2120    0.8190 H   0  0  0  0  0
    7.8570    1.6830   -0.1750 H   0  0  0  0  0
    7.2550    0.2110   -0.7170 H   0  0  0  0  0
    1.2490   -2.7900   -0.8380 H   0  0  0  0  0
   -0.6090   -3.4220    0.8010 H   0  0  0  0  0
   -2.9990   -3.9160    1.0750 H   0  0  0  0  0
   -4.6800   -2.1630    0.7030 H   0  0  0  0  0
   -5.4570   -0.8060   -1.3180 H   0  0  0  0  0
   -7.1410    0.9500   -1.6820 H   0  0  0  0  0
   -6.8960    3.1410   -0.5910 H   0  0  0  0  0
   -4.9670    3.5880    0.8690 H   0  0  0  0  0
   -3.2770    1.8410    1.2520 H   0  0  0  0  0
  1  2  2  0  0  0
  1  6  1  0  0  0
  1  7  1  0  0  0
  2  3  1  0  0  0
  2 26  1  0  0  0
  3  4  2  0  0  0
  3 27  1  0  0  0
  4  5  1  0  0  0
  4 10  1  0  0  0
  5  6  2  0  0  0
  5 11  1  0  0  0
  6 28  1  0  0  0
  7  8  1  0  0  0
  7  9  2  0  0  0
  8 29  1  0  0  0
  8 30  1  0  0  0
  9 31  1  0  0  0
  9 32  1  0  0  0
 10 12  1  0  0  0
 10 33  1  0  0  0
 11 12  2  0  0  0
 12 13  1  0  0  0
 13 14  2  0  0  0
 13 18  1  0  0  0
 14 15  1  0  0  0
 14 34  1  0  0  0
 15 16  2  0  0  0
 15 35  1  0  0  0
 16 17  1  0  0  0
 16 36  1  0  0  0
 17 18  2  0  0  0
 17 20  1  0  0  0
 18 19  1  0  0  0
 20 21  2  0  0  0
 20 25  1  0  0  0
 21 22  1  0  0  0
 21 37  1  0  0  0
 22 23  2  0  0  0
 22 38  1  0  0  0
 23 24  1  0  0  0
 23 39  1  0  0  0
 24 25  2  0  0  0
 24 40  1  0  0  0
 25 41  1  0  0  0
M  CHG  1   9   1
M  CHG  1  19  -1
M  END
$$$$
