783
  CCTOOLS-1004241125

 46 49  0  0  0  0  0  0  0  0999 V2000
   -5.2990   -0.3530    0.0150 C   0  0  0  0  0
   -4.9190   -1.4150   -0.8170 C   0  0  0  0  0
   -3.6110   -1.5990   -1.1570 C   0  0  0  0  0
   -2.6330   -0.7290   -0.6810 C   0  0  0  0  0
   -3.0020    0.3440    0.1560 C   0  0  0  0  0
   -4.3400    0.5280    0.5020 C   0  0  0  0  0
   -6.7210   -0.1680    0.3730 C   0  0  0  0  0
   -7.6410   -1.0110   -0.0940 N   0  0  0  0  0
   -7.0840    0.8410    1.1630 N   0  3  0  0  0
   -1.2700   -0.6670   -0.8510 N   0  0  0  0  0
   -1.7650    1.0530    0.4830 C   0  0  0  0  0
   -0.7590    0.4040   -0.1540 C   0  0  0  0  0
    0.6680    0.7850   -0.1030 C   0  0  0  0  0
    1.0350    2.1300   -0.1500 C   0  0  0  0  0
    2.3720    2.4880   -0.1010 C   0  0  0  0  0
    2.7240    3.8010   -0.1470 O   0  0  0  0  0
    4.1510    3.8480   -0.0780 C   0  0  0  0  0
    3.3530    1.5140   -0.0100 C   0  0  0  0  0
    3.0000    0.1670    0.0430 C   0  0  0  0  0
    1.6540   -0.2020   -0.0060 C   0  0  0  0  0
    1.3040   -1.5130    0.0410 O   0  5  0  0  0
    4.0510   -0.8740    0.1470 C   0  0  0  0  0
    5.1380   -0.8600   -0.7260 C   0  0  0  0  0
    6.1140   -1.8300   -0.6240 C   0  0  0  0  0
    6.0150   -2.8160    0.3410 C   0  0  0  0  0
    4.9390   -2.8360    1.2090 C   0  0  0  0  0
    3.9590   -1.8670    1.1200 C   0  0  0  0  0
   -5.6700   -2.0940   -1.1920 H   0  0  0  0  0
   -3.3330   -2.4220   -1.7990 H   0  0  0  0  0
   -4.6290    1.3480    1.1430 H   0  0  0  0  0
   -8.5740   -0.8900    0.1410 H   0  0  0  0  0
   -7.3770   -1.7460   -0.6700 H   0  0  0  0  0
   -6.4140    1.4550    1.5030 H   0  0  0  0  0
   -8.0170    0.9620    1.3990 H   0  0  0  0  0
   -0.7460   -1.2860   -1.3830 H   0  0  0  0  0
   -1.6710    1.9270    1.1100 H   0  0  0  0  0
    0.2750    2.8940   -0.2250 H   0  0  0  0  0
    4.4850    3.3910    0.8530 H   0  0  0  0  0
    4.5740    3.3040   -0.9230 H   0  0  0  0  0
    4.4820    4.8860   -0.1130 H   0  0  0  0  0
    4.3940    1.7990    0.0280 H   0  0  0  0  0
    5.2160   -0.0900   -1.4800 H   0  0  0  0  0
    6.9560   -1.8200   -1.3000 H   0  0  0  0  0
    6.7810   -3.5740    0.4160 H   0  0  0  0  0
    4.8660   -3.6080    1.9600 H   0  0  0  0  0
    3.1200   -1.8830    1.7990 H   0  0  0  0  0
  1  2  2  0  0  0
  1  6  1  0  0  0
  1  7  1  0  0  0
  2  3  1  0  0  0
  2 28  1  0  0  0
  3  4  2  0  0  0
  3 29  1  0  0  0
  4  5  1  0  0  0
  4 10  1  0  0  0
  5  6  2  0  0  0
  5 11  1  0  0  0
  6 30  1  0  0  0
  7  8  1  0  0  0
  7  9  2  0  0  0
  8 31  1  0  0  0
  8 32  1  0  0  0
  9 33  1  0  0  0
  9 34  1  0  0  0
 10 12  1  0  0  0
 10 35  1  0  0  0
 11 12  2  0  0  0
 11 36  1  0  0  0
 12 13  1  0  0  0
 13 14  2  0  0  0
 13 20  1  0  0  0
 14 15  1  0  0  0
 14 37  1  0  0  0
 15 16  1  0  0  0
 15 18  2  0  0  0
 16 17  1  0  0  0
 17 38  1  0  0  0
 17 39  1  0  0  0
 17 40  1  0  0  0
 18 19  1  0  0  0
 18 41  1  0  0  0
 19 20  2  0  0  0
 19 22  1  0  0  0
 20 21  1  0  0  0
 22 23  2  0  0  0
 22 27  1  0  0  0
 23 24  1  0  0  0
 23 42  1  0  0  0
 24 25  2  0  0  0
 24 43  1  0  0  0
 25 26  1  0  0  0
 25 44  1  0  0  0
 26 27  2  0  0  0
 26 45  1  0  0  0
 27 46  1  0  0  0
M  CHG  1   9   1
M  CHG  1  21  -1
M  END
$$$$
