785
  CCTOOLS-1004241125

 35 37  0  0  0  0  0  0  0  0999 V2000
    5.0020    0.4210    0.0460 C   0  0  0  0  0
    5.0660   -0.8590    0.6080 C   0  0  0  0  0
    3.9270   -1.5850    0.8080 C   0  0  0  0  0
    2.6910   -1.0580    0.4540 C   0  0  0  0  0
    2.6080    0.2290   -0.1120 C   0  0  0  0  0
    3.7740    0.9690   -0.3090 C   0  0  0  0  0
    6.2430    1.1960   -0.1650 C   0  0  0  0  0
    6.1850    2.4150   -0.7000 N   0  0  0  0  0
    7.4200    0.6760    0.1800 N   0  3  0  0  0
    1.3970   -1.5300    0.5270 N   0  0  0  0  0
    1.2960    0.4770   -0.3530 N   0  0  0  0  0
    0.5790   -0.5550    0.0210 C   0  0  0  0  0
   -0.8910   -0.6510   -0.0870 C   0  0  0  0  0
   -1.6890    0.4590    0.1950 C   0  0  0  0  0
   -3.0650    0.3620    0.0910 C   0  0  0  0  0
   -3.8440    1.4430    0.3660 O   0  0  0  0  0
   -5.2000    1.0350    0.1720 C   0  0  0  0  0
   -5.4960   -0.0230    1.0370 F   0  0  0  0  0
   -6.0530    2.1100    0.4410 F   0  0  0  0  0
   -5.3770    0.6180   -1.1520 F   0  0  0  0  0
   -3.6540   -0.8360   -0.2930 C   0  0  0  0  0
   -2.8700   -1.9390   -0.5730 C   0  0  0  0  0
   -1.4900   -1.8540   -0.4780 C   0  0  0  0  0
   -0.7210   -2.9390   -0.7550 O   0  5  0  0  0
    6.0230   -1.2760    0.8860 H   0  0  0  0  0
    3.9870   -2.5730    1.2420 H   0  0  0  0  0
    3.7230    1.9590   -0.7380 H   0  0  0  0  0
    5.3280    2.7940   -0.9510 H   0  0  0  0  0
    6.9990    2.9230   -0.8380 H   0  0  0  0  0
    8.2340    1.1840    0.0410 H   0  0  0  0  0
    7.4620   -0.2100    0.5730 H   0  0  0  0  0
    1.1180   -2.3920    0.8730 H   0  0  0  0  0
   -1.2330    1.3910    0.4930 H   0  0  0  0  0
   -4.7280   -0.9060   -0.3720 H   0  0  0  0  0
   -3.3340   -2.8670   -0.8710 H   0  0  0  0  0
  1  2  2  0  0  0
  1  6  1  0  0  0
  1  7  1  0  0  0
  2  3  1  0  0  0
  2 25  1  0  0  0
  3  4  2  0  0  0
  3 26  1  0  0  0
  4  5  1  0  0  0
  4 10  1  0  0  0
  5  6  2  0  0  0
  5 11  1  0  0  0
  6 27  1  0  0  0
  7  8  1  0  0  0
  7  9  2  0  0  0
  8 28  1  0  0  0
  8 29  1  0  0  0
  9 30  1  0  0  0
  9 31  1  0  0  0
 10 12  1  0  0  0
 10 32  1  0  0  0
 11 12  2  0  0  0
 12 13  1  0  0  0
 13 14  2  0  0  0
 13 23  1  0  0  0
 14 15  1  0  0  0
 14 33  1  0  0  0
 15 16  1  0  0  0
 15 21  2  0  0  0
 16 17  1  0  0  0
 17 18  1  0  0  0
 17 19  1  0  0  0
 17 20  1  0  0  0
 21 22  1  0  0  0
 21 34  1  0  0  0
 22 23  2  0  0  0
 22 35  1  0  0  0
 23 24  1  0  0  0
M  CHG  1   9   1
M  CHG  1  24  -1
M  END
$$$$
