806
  CCTOOLS-0919241031

 68 73  0  0  0  0  0  0  0  0999 V2000
   -3.8520   -0.4370    3.4130 N   0  0  0  0  0
   -4.6350    0.1970    2.5880 C   0  0  0  0  0
   -5.7450    0.8600    3.0650 N   0  0  0  0  0
   -4.3330    0.2050    1.1390 C   0  0  0  0  0
   -3.2170   -0.4610    0.6670 C   0  0  0  0  0
   -2.9360   -0.4490   -0.7070 C   0  0  0  0  0
   -1.8150   -1.1210   -1.2260 C   0  0  0  0  0
   -1.5680   -1.0850   -2.5640 C   0  0  0  0  0
   -2.4180   -0.4010   -3.4320 C   0  0  0  0  0
   -3.5150    0.2550   -2.9660 C   0  0  0  0  0
   -3.8010    0.2460   -1.5900 C   0  0  0  0  0
   -4.9270    0.9150   -1.0780 C   0  0  0  0  0
   -5.1820    0.8920    0.2540 C   0  0  0  0  0
   -0.3620   -1.8010   -3.1160 C   0  0  0  0  0
    0.7820   -0.8870   -3.1310 N   0  0  0  0  0
    1.1200   -0.0590   -4.1870 C   0  0  0  0  0
    2.2700    0.6620   -3.8330 C   0  0  0  0  0
    2.6340    0.2260   -2.4720 C   0  0  0  0  0
    1.6810   -0.7290   -2.0910 C   0  0  0  0  0
    3.6630    0.5750   -1.5990 C   0  0  0  0  0
    3.7430   -0.0200   -0.3600 C   0  0  0  0  0
    2.7990   -0.9680    0.0210 C   0  0  0  0  0
    1.7780   -1.3270   -0.8390 C   0  0  0  0  0
    2.8230    1.5750   -4.7270 C   0  0  0  0  0
    2.2380    1.7670   -5.9600 C   0  0  0  0  0
    1.1010    1.0550   -6.3110 C   0  0  0  0  0
    0.5430    0.1480   -5.4360 C   0  0  0  0  0
    2.8860   -1.5510    1.2450 O   0  0  0  0  0
    2.1810   -0.7050    2.1560 C   0  0  0  0  0
    1.6540   -1.5410    3.3250 C   0  0  0  0  0
    0.8700   -0.6360    4.2810 C   0  0  0  0  0
    1.7290    0.4860    4.6810 N   0  0  0  0  0
    2.3560    1.3030    3.6340 C   0  0  0  0  0
    3.1280    0.3740    2.6850 C   0  0  0  0  0
    1.9360    0.7680    6.0060 C   0  0  0  0  0
    2.5940    1.8280    6.3450 N   0  0  0  0  0
    1.3970   -0.1560    7.0670 C   0  0  0  0  0
   -4.0490   -0.4420    4.3630 H   0  0  0  0  0
   -5.9430    0.8550    4.0140 H   0  0  0  0  0
   -6.3280    1.3330    2.4510 H   0  0  0  0  0
   -2.5670   -0.9870    1.3500 H   0  0  0  0  0
   -1.1510   -1.6580   -0.5660 H   0  0  0  0  0
   -2.2020   -0.3920   -4.4900 H   0  0  0  0  0
   -4.1640    0.7810   -3.6510 H   0  0  0  0  0
   -5.5880    1.4470   -1.7460 H   0  0  0  0  0
   -6.0490    1.4080    0.6400 H   0  0  0  0  0
   -0.5720   -2.1370   -4.1310 H   0  0  0  0  0
   -0.1320   -2.6620   -2.4890 H   0  0  0  0  0
    4.3960    1.3120   -1.8940 H   0  0  0  0  0
    4.5400    0.2490    0.3160 H   0  0  0  0  0
    1.0500   -2.0650   -0.5350 H   0  0  0  0  0
    3.7090    2.1300   -4.4550 H   0  0  0  0  0
    2.6660    2.4740   -6.6550 H   0  0  0  0  0
    0.6500    1.2120   -7.2800 H   0  0  0  0  0
   -0.3410   -0.4000   -5.7200 H   0  0  0  0  0
    1.3450   -0.2330    1.6400 H   0  0  0  0  0
    2.4910   -1.9920    3.8560 H   0  0  0  0  0
    0.9980   -2.3240    2.9450 H   0  0  0  0  0
    0.5760   -1.2050    5.1630 H   0  0  0  0  0
   -0.0180   -0.2550    3.7770 H   0  0  0  0  0
    1.5900    1.8420    3.0760 H   0  0  0  0  0
    3.0450    2.0140    4.0910 H   0  0  0  0  0
    3.9520   -0.0950    3.2230 H   0  0  0  0  0
    3.5210    0.9540    1.8500 H   0  0  0  0  0
    3.0010    2.3860    5.6640 H   0  0  0  0  0
    1.6590    0.2290    8.0520 H   0  0  0  0  0
    0.3130   -0.2180    6.9770 H   0  0  0  0  0
    1.8300   -1.1480    6.9380 H   0  0  0  0  0
  1  2  2  0  0  0
  1 38  1  0  0  0
  2  3  1  0  0  0
  2  4  1  0  0  0
  3 39  1  0  0  0
  3 40  1  0  0  0
  4  5  2  0  0  0
  4 13  1  0  0  0
  5  6  1  0  0  0
  5 41  1  0  0  0
  6  7  2  0  0  0
  6 11  1  0  0  0
  7  8  1  0  0  0
  7 42  1  0  0  0
  8  9  2  0  0  0
  8 14  1  0  0  0
  9 10  1  0  0  0
  9 43  1  0  0  0
 10 11  2  0  0  0
 10 44  1  0  0  0
 11 12  1  0  0  0
 12 13  2  0  0  0
 12 45  1  0  0  0
 13 46  1  0  0  0
 14 15  1  0  0  0
 14 47  1  0  0  0
 14 48  1  0  0  0
 15 16  1  0  0  0
 15 19  1  0  0  0
 16 17  2  0  0  0
 16 27  1  0  0  0
 17 18  1  0  0  0
 17 24  1  0  0  0
 18 19  2  0  0  0
 18 20  1  0  0  0
 19 23  1  0  0  0
 20 21  2  0  0  0
 20 49  1  0  0  0
 21 22  1  0  0  0
 21 50  1  0  0  0
 22 23  2  0  0  0
 22 28  1  0  0  0
 23 51  1  0  0  0
 24 25  2  0  0  0
 24 52  1  0  0  0
 25 26  1  0  0  0
 25 53  1  0  0  0
 26 27  2  0  0  0
 26 54  1  0  0  0
 27 55  1  0  0  0
 28 29  1  0  0  0
 29 30  1  0  0  0
 29 34  1  0  0  0
 29 56  1  0  0  0
 30 31  1  0  0  0
 30 57  1  0  0  0
 30 58  1  0  0  0
 31 32  1  0  0  0
 31 59  1  0  0  0
 31 60  1  0  0  0
 32 33  1  0  0  0
 32 35  1  0  0  0
 33 34  1  0  0  0
 33 61  1  0  0  0
 33 62  1  0  0  0
 34 63  1  0  0  0
 34 64  1  0  0  0
 35 36  2  0  0  0
 35 37  1  0  0  0
 36 65  1  0  0  0
 37 66  1  0  0  0
 37 67  1  0  0  0
 37 68  1  0  0  0
M  END
$$$$
