847
  CCTOOLS-0919241031

 41 43  0  0  1  0  0  0  0  0999 V2000
    5.9980   -0.6430    0.0410 C   0  0  0  0  0
    6.0640    0.5360   -0.7120 C   0  0  0  0  0
    4.9240    1.2130   -1.0380 C   0  0  0  0  0
    3.6860    0.7380   -0.6240 C   0  0  0  0  0
    3.6010   -0.4460    0.1340 C   0  0  0  0  0
    4.7680   -1.1380    0.4600 C   0  0  0  0  0
    7.2400   -1.3670    0.3870 C   0  0  0  0  0
    7.1800   -2.4880    1.1030 N   0  0  0  0  0
    8.4190   -0.8970   -0.0180 N   0  3  0  0  0
    2.3910    1.1820   -0.7880 N   0  0  0  0  0
    2.2870   -0.6640    0.3910 N   0  0  0  0  0
    1.5700    0.2910   -0.1490 C   0  0  0  0  0
    0.0980    0.3920   -0.0790 C   0  0  0  0  0
   -0.6900   -0.7550   -0.1970 C   0  0  0  0  0
   -2.0630   -0.6550   -0.1310 C   0  0  0  0  0
   -2.9120   -1.8940   -0.2580 C   0  0  0  0  0
   -3.8290   -1.7540   -1.4460 C   0  0  0  0  0
   -3.7650   -2.5570   -2.3630 O   0  0  0  0  0
   -4.6340   -0.8390   -1.4910 O   0  5  0  0  0
   -3.7470   -2.0730    1.0120 C   0  0  0  0  0
   -4.5030   -3.3750    0.9360 C   0  0  0  0  0
   -4.3790   -4.1250   -0.0870 O   0  0  0  0  0
   -5.2660   -3.7260    1.8960 O   0  5  0  0  0
   -2.6660    0.5780    0.0520 C   0  0  0  0  0
   -1.8970    1.7200    0.1700 C   0  0  0  0  0
   -0.5140    1.6360    0.1110 C   0  0  0  0  0
    0.2420    2.7580    0.2270 O   0  5  0  0  0
   -2.7320    3.3990    0.4200 BR  0  0  0  0  0
    7.0230    0.9120   -1.0370 H   0  0  0  0  0
    4.9860    2.1220   -1.6190 H   0  0  0  0  0
    4.7160   -2.0500    1.0370 H   0  0  0  0  0
    7.9950   -2.9630    1.3300 H   0  0  0  0  0
    6.3210   -2.8300    1.3980 H   0  0  0  0  0
    8.4630   -0.0810   -0.5400 H   0  0  0  0  0
    9.2340   -1.3700    0.2120 H   0  0  0  0  0
    2.1130    1.9780   -1.2680 H   0  0  0  0  0
   -0.2240   -1.7180   -0.3400 H   0  0  0  0  0
   -2.2690   -2.7630   -0.3960 H   0  0  0  0  0
   -3.0890   -2.0850    1.8800 H   0  0  0  0  0
   -4.4530   -1.2480    1.1020 H   0  0  0  0  0
   -3.7430    0.6470    0.1030 H   0  0  0  0  0
  1  2  2  0  0  0
  1  6  1  0  0  0
  1  7  1  0  0  0
  2  3  1  0  0  0
  2 29  1  0  0  0
  3  4  2  0  0  0
  3 30  1  0  0  0
  4  5  1  0  0  0
  4 10  1  0  0  0
  5  6  2  0  0  0
  5 11  1  0  0  0
  6 31  1  0  0  0
  7  8  1  0  0  0
  7  9  2  0  0  0
  8 32  1  0  0  0
  8 33  1  0  0  0
  9 34  1  0  0  0
  9 35  1  0  0  0
 10 12  1  0  0  0
 10 36  1  0  0  0
 11 12  2  0  0  0
 12 13  1  0  0  0
 13 14  2  0  0  0
 13 26  1  0  0  0
 14 15  1  0  0  0
 14 37  1  0  0  0
 15 16  1  0  0  0
 15 24  2  0  0  0
 16 17  1  0  0  0
 16 20  1  0  0  0
 16 38  1  0  0  0
 17 18  2  0  0  0
 17 19  1  0  0  0
 20 21  1  0  0  0
 20 39  1  0  0  0
 20 40  1  0  0  0
 21 22  2  0  0  0
 21 23  1  0  0  0
 24 25  1  0  0  0
 24 41  1  0  0  0
 25 26  2  0  0  0
 25 28  1  0  0  0
 26 27  1  0  0  0
M  CHG  1   9   1
M  CHG  1  19  -1
M  CHG  1  23  -1
M  CHG  1  27  -1
M  END
$$$$
