907
  CCTOOLS-0919241035

 35 37  0  0  0  0  0  0  0  0999 V2000
   -4.9080   -0.2420   -0.0020 C   0  0  0  0  0
   -4.9340    0.9740    0.6930 C   0  0  0  0  0
   -3.7810    1.6600    0.9390 C   0  0  0  0  0
   -2.5580    1.1590    0.4990 C   0  0  0  0  0
   -2.5180   -0.0640   -0.2020 C   0  0  0  0  0
   -3.6990   -0.7630   -0.4510 C   0  0  0  0  0
   -6.1670   -0.9730   -0.2590 C   0  0  0  0  0
   -7.3260   -0.4750    0.1710 N   0  0  0  0  0
   -6.1440   -2.1290   -0.9200 N   0  3  0  0  0
   -1.2650    1.6180    0.5970 N   0  0  0  0  0
   -1.1120   -0.3070   -0.5240 C   0  0  0  0  0
   -0.4070    0.7330   -0.0140 C   0  0  0  0  0
    1.0600    0.8950   -0.1070 C   0  0  0  0  0
    1.6120    2.1530   -0.3540 C   0  0  0  0  0
    2.9810    2.2970   -0.4460 C   0  0  0  0  0
    3.5760    3.6550   -0.7180 C   0  0  0  0  0
    3.8110    1.2010   -0.2820 C   0  0  0  0  0
    3.2750   -0.0490   -0.0320 C   0  0  0  0  0
    1.9010   -0.2110    0.0570 C   0  0  0  0  0
    1.3740   -1.4390    0.3030 O   0  5  0  0  0
    4.4180   -1.5390    0.1890 BR  0  0  0  0  0
   -5.8760    1.3720    1.0390 H   0  0  0  0  0
   -3.8160    2.5960    1.4760 H   0  0  0  0  0
   -3.6750   -1.7000   -0.9870 H   0  0  0  0  0
   -7.3430    0.3670    0.6530 H   0  0  0  0  0
   -8.1520   -0.9540    0.0030 H   0  0  0  0  0
   -6.9700   -2.6080   -1.0880 H   0  0  0  0  0
   -5.3000   -2.4920   -1.2330 H   0  0  0  0  0
   -0.9990    2.4420    1.0330 H   0  0  0  0  0
   -0.7120   -1.1530   -1.0630 H   0  0  0  0  0
    0.9680    3.0100   -0.4810 H   0  0  0  0  0
    3.6750    3.7980   -1.7940 H   0  0  0  0  0
    2.9240    4.4260   -0.3080 H   0  0  0  0  0
    4.5580    3.7220   -0.2500 H   0  0  0  0  0
    4.8810    1.3230   -0.3510 H   0  0  0  0  0
  1  2  2  0  0  0
  1  6  1  0  0  0
  1  7  1  0  0  0
  2  3  1  0  0  0
  2 22  1  0  0  0
  3  4  2  0  0  0
  3 23  1  0  0  0
  4  5  1  0  0  0
  4 10  1  0  0  0
  5  6  2  0  0  0
  5 11  1  0  0  0
  6 24  1  0  0  0
  7  8  1  0  0  0
  7  9  2  0  0  0
  8 25  1  0  0  0
  8 26  1  0  0  0
  9 27  1  0  0  0
  9 28  1  0  0  0
 10 12  1  0  0  0
 10 29  1  0  0  0
 11 12  2  0  0  0
 11 30  1  0  0  0
 12 13  1  0  0  0
 13 14  2  0  0  0
 13 19  1  0  0  0
 14 15  1  0  0  0
 14 31  1  0  0  0
 15 16  1  0  0  0
 15 17  2  0  0  0
 16 32  1  0  0  0
 16 33  1  0  0  0
 16 34  1  0  0  0
 17 18  1  0  0  0
 17 35  1  0  0  0
 18 19  2  0  0  0
 18 21  1  0  0  0
 19 20  1  0  0  0
M  CHG  1   9   1
M  CHG  1  20  -1
M  END
$$$$
