950
  CCTOOLS-0919241036

 44 46  0  0  0  0  0  0  0  0999 V2000
   -4.5900   -0.5620    0.1010 C   0  0  0  0  0
   -4.7600    0.6740   -0.5390 C   0  0  0  0  0
   -5.9920    1.0640   -0.9330 F   0  0  0  0  0
   -3.6750    1.4930   -0.7680 C   0  0  0  0  0
   -2.4070    1.0960   -0.3640 C   0  0  0  0  0
   -2.2240   -0.1440    0.2800 C   0  0  0  0  0
   -3.3240   -0.9700    0.5100 C   0  0  0  0  0
   -5.7580   -1.4330    0.3420 C   0  0  0  0  0
   -6.0380   -1.8440    1.5780 N   0  0  0  0  0
   -6.5310   -1.8080   -0.6760 N   0  3  0  0  0
   -1.1570    1.6730   -0.4460 N   0  0  0  0  0
   -0.9000   -0.2640    0.5500 N   0  0  0  0  0
   -0.2680    0.8040    0.1300 C   0  0  0  0  0
    1.1870    1.0350    0.2530 C   0  0  0  0  0
    1.6710    2.3030    0.5790 C   0  0  0  0  0
    3.0290    2.5140    0.6930 C   0  0  0  0  0
    3.9170    1.4730    0.4870 C   0  0  0  0  0
    3.4510    0.2090    0.1640 C   0  0  0  0  0
    2.0850   -0.0170    0.0400 C   0  0  0  0  0
    1.6240   -1.2550   -0.2780 O   0  5  0  0  0
    4.3300   -0.8090   -0.0380 O   0  0  0  0  0
    5.6390   -0.2680    0.1520 C   0  0  0  0  0
    6.6810   -1.3680   -0.0610 C   0  0  0  0  0
    6.6420   -1.8320   -1.5180 C   0  0  0  0  0
    8.0730   -0.8230    0.2640 C   0  0  0  0  0
   -3.8110    2.4440   -1.2610 H   0  0  0  0  0
   -3.1940   -1.9220    1.0030 H   0  0  0  0  0
   -5.4750   -1.5720    2.3200 H   0  0  0  0  0
   -6.8050   -2.4160    1.7370 H   0  0  0  0  0
   -7.3400   -2.3170   -0.5090 H   0  0  0  0  0
   -6.2860   -1.5710   -1.5840 H   0  0  0  0  0
   -0.9460    2.5350   -0.8390 H   0  0  0  0  0
    0.9820    3.1190    0.7410 H   0  0  0  0  0
    3.4000    3.4960    0.9450 H   0  0  0  0  0
    4.9790    1.6470    0.5790 H   0  0  0  0  0
    5.7260    0.1230    1.1660 H   0  0  0  0  0
    5.8080    0.5360   -0.5640 H   0  0  0  0  0
    6.4590   -2.2110    0.5940 H   0  0  0  0  0
    7.3840   -2.6150   -1.6700 H   0  0  0  0  0
    5.6510   -2.2210   -1.7500 H   0  0  0  0  0
    6.8640   -0.9890   -2.1730 H   0  0  0  0  0
    8.2940    0.0200   -0.3910 H   0  0  0  0  0
    8.1000   -0.4920    1.3030 H   0  0  0  0  0
    8.8150   -1.6060    0.1120 H   0  0  0  0  0
  1  2  2  0  0  0
  1  7  1  0  0  0
  1  8  1  0  0  0
  2  3  1  0  0  0
  2  4  1  0  0  0
  4  5  2  0  0  0
  4 26  1  0  0  0
  5  6  1  0  0  0
  5 11  1  0  0  0
  6  7  2  0  0  0
  6 12  1  0  0  0
  7 27  1  0  0  0
  8  9  1  0  0  0
  8 10  2  0  0  0
  9 28  1  0  0  0
  9 29  1  0  0  0
 10 30  1  0  0  0
 10 31  1  0  0  0
 11 13  1  0  0  0
 11 32  1  0  0  0
 12 13  2  0  0  0
 13 14  1  0  0  0
 14 15  2  0  0  0
 14 19  1  0  0  0
 15 16  1  0  0  0
 15 33  1  0  0  0
 16 17  2  0  0  0
 16 34  1  0  0  0
 17 18  1  0  0  0
 17 35  1  0  0  0
 18 19  2  0  0  0
 18 21  1  0  0  0
 19 20  1  0  0  0
 21 22  1  0  0  0
 22 23  1  0  0  0
 22 36  1  0  0  0
 22 37  1  0  0  0
 23 24  1  0  0  0
 23 25  1  0  0  0
 23 38  1  0  0  0
 24 39  1  0  0  0
 24 40  1  0  0  0
 24 41  1  0  0  0
 25 42  1  0  0  0
 25 43  1  0  0  0
 25 44  1  0  0  0
M  CHG  1  10   1
M  CHG  1  20  -1
M  END
$$$$
