972
  CCTOOLS-0919241036

 44 46  0  0  0  0  0  0  0  0999 V2000
   -4.2630   -0.7150    0.2090 C   0  0  0  0  0
   -4.4680    0.5200   -0.4210 C   0  0  0  0  0
   -6.0680    0.9890   -0.9050 CL  0  0  0  0  0
   -3.4050    1.3630   -0.6600 C   0  0  0  0  0
   -2.1230    0.9910   -0.2750 C   0  0  0  0  0
   -1.9050   -0.2470    0.3590 C   0  0  0  0  0
   -2.9840   -1.0980    0.5990 C   0  0  0  0  0
   -5.4100   -1.6120    0.4610 C   0  0  0  0  0
   -6.4560   -1.1760    1.1610 N   0  0  0  0  0
   -5.3970   -2.8580   -0.0130 N   0  3  0  0  0
   -0.8880    1.5970   -0.3710 N   0  0  0  0  0
   -0.5750   -0.3390    0.6110 N   0  0  0  0  0
    0.0280    0.7450    0.1880 C   0  0  0  0  0
    1.4780    1.0050    0.2930 C   0  0  0  0  0
    1.9400    2.2830    0.6190 C   0  0  0  0  0
    3.2940    2.5230    0.7150 C   0  0  0  0  0
    4.2020    1.5020    0.4910 C   0  0  0  0  0
    3.7590    0.2300    0.1670 C   0  0  0  0  0
    2.3960   -0.0240    0.0600 C   0  0  0  0  0
    1.9580   -1.2700   -0.2580 O   0  5  0  0  0
    4.6560   -0.7680   -0.0520 O   0  0  0  0  0
    5.9560   -0.2000    0.1240 C   0  0  0  0  0
    7.0180   -1.2760   -0.1090 C   0  0  0  0  0
    6.9700   -1.7320   -1.5690 C   0  0  0  0  0
    8.4020   -0.7020    0.2000 C   0  0  0  0  0
   -3.5690    2.3130   -1.1460 H   0  0  0  0  0
   -2.8270   -2.0500    1.0850 H   0  0  0  0  0
   -6.4650   -0.2700    1.5060 H   0  0  0  0  0
   -7.2080   -1.7650    1.3260 H   0  0  0  0  0
   -6.1140   -3.4700    0.2150 H   0  0  0  0  0
   -4.6710   -3.1520   -0.5850 H   0  0  0  0  0
   -0.7010    2.4650   -0.7620 H   0  0  0  0  0
    1.2350    3.0820    0.7950 H   0  0  0  0  0
    3.6480    3.5110    0.9680 H   0  0  0  0  0
    5.2610    1.6990    0.5700 H   0  0  0  0  0
    6.0490    0.1880    1.1390 H   0  0  0  0  0
    6.0980    0.6110   -0.5900 H   0  0  0  0  0
    6.8240   -2.1270    0.5440 H   0  0  0  0  0
    7.7270   -2.4990   -1.7350 H   0  0  0  0  0
    5.9840   -2.1410   -1.7890 H   0  0  0  0  0
    7.1650   -0.8820   -2.2220 H   0  0  0  0  0
    8.5970    0.1490   -0.4530 H   0  0  0  0  0
    8.4370   -0.3770    1.2400 H   0  0  0  0  0
    9.1590   -1.4690    0.0340 H   0  0  0  0  0
  1  2  2  0  0  0
  1  7  1  0  0  0
  1  8  1  0  0  0
  2  3  1  0  0  0
  2  4  1  0  0  0
  4  5  2  0  0  0
  4 26  1  0  0  0
  5  6  1  0  0  0
  5 11  1  0  0  0
  6  7  2  0  0  0
  6 12  1  0  0  0
  7 27  1  0  0  0
  8  9  1  0  0  0
  8 10  2  0  0  0
  9 28  1  0  0  0
  9 29  1  0  0  0
 10 30  1  0  0  0
 10 31  1  0  0  0
 11 13  1  0  0  0
 11 32  1  0  0  0
 12 13  2  0  0  0
 13 14  1  0  0  0
 14 15  2  0  0  0
 14 19  1  0  0  0
 15 16  1  0  0  0
 15 33  1  0  0  0
 16 17  2  0  0  0
 16 34  1  0  0  0
 17 18  1  0  0  0
 17 35  1  0  0  0
 18 19  2  0  0  0
 18 21  1  0  0  0
 19 20  1  0  0  0
 21 22  1  0  0  0
 22 23  1  0  0  0
 22 36  1  0  0  0
 22 37  1  0  0  0
 23 24  1  0  0  0
 23 25  1  0  0  0
 23 38  1  0  0  0
 24 39  1  0  0  0
 24 40  1  0  0  0
 24 41  1  0  0  0
 25 42  1  0  0  0
 25 43  1  0  0  0
 25 44  1  0  0  0
M  CHG  1  10   1
M  CHG  1  20  -1
M  END
$$$$
