974
  CCTOOLS-0919241036

 68 72  0  0  1  0  0  0  0  0999 V2000
    0.6100    2.6430   -1.9050 O   0  0  0  0  0
   -0.0830    3.5640   -1.1840 C   0  0  0  0  0
   -0.2560    3.3900    0.1770 C   0  0  0  0  0
   -0.9680    4.3380    0.9130 C   0  0  0  0  0
   -1.5020    5.4580    0.2740 C   0  0  0  0  0
   -1.3270    5.6260   -1.0830 C   0  0  0  0  0
   -0.6140    4.6880   -1.8160 C   0  0  0  0  0
   -0.4430    4.8580   -3.1530 O   0  0  0  0  0
   -1.1560    4.1560    2.3690 C   0  0  0  0  0
   -1.9680    5.0200    3.0720 N   0  0  0  0  0
   -0.5550    3.1790    2.9870 N   0  0  0  0  0
    2.1880    1.1980   -0.8800 C   0  0  0  0  0
    3.1980    1.8210   -1.5260 F   0  0  0  0  0
    2.4500    0.1350   -0.0170 C   0  0  0  0  0
    1.3760   -0.4720    0.6320 C   0  0  0  0  0
    1.5830   -1.5050    1.4780 F   0  0  0  0  0
    0.0920   -0.0090    0.3910 C   0  0  0  0  0
   -0.1190    1.0040   -0.4360 N   0  3  0  0  0
    0.8770    1.6090   -1.0670 C   0  0  0  0  0
    3.7570   -0.3060    0.1960 N   0  0  0  0  0
    3.8050   -1.7060   -0.2400 C   0  0  0  0  0
    5.2130   -2.2650   -0.0290 C   0  0  0  0  0
    5.5570   -2.2140    1.4630 C   0  0  0  0  0
    5.3920   -0.7750    1.9620 C   0  0  0  0  0
    3.9740   -0.2930    1.6470 C   0  0  0  0  0
    5.2670   -3.6930   -0.5080 C   0  0  0  0  0
    6.4100   -4.3900   -0.4160 O   0  0  0  0  0
    4.2800   -4.2100   -0.9770 O   0  0  0  0  0
   -0.9610   -0.5960    1.0150 O   0  0  0  0  0
   -1.7650   -1.0960    0.0400 C   0  0  0  0  0
   -1.4560   -0.8770   -1.2950 C   0  0  0  0  0
   -2.2710   -1.3840   -2.2910 C   0  0  0  0  0
   -3.3970   -2.1110   -1.9630 C   0  0  0  0  0
   -3.7160   -2.3360   -0.6230 C   0  0  0  0  0
   -2.8970   -1.8200    0.3800 C   0  0  0  0  0
   -4.9220   -3.1150   -0.2690 C   0  0  0  0  0
   -5.7420   -2.8780    0.7960 N   0  0  0  0  0
   -5.5950   -1.8100    1.7880 C   0  0  0  0  0
   -5.3830   -4.1590   -0.9210 N   0  0  0  0  0
   -6.7310   -3.8230    0.7580 C   0  0  0  0  0
   -6.4890   -4.6060   -0.3140 C   0  0  0  0  0
    0.1580    2.5230    0.6680 H   0  0  0  0  0
   -2.0540    6.1920    0.8420 H   0  0  0  0  0
   -1.7410    6.4930   -1.5760 H   0  0  0  0  0
    0.3740    5.3620   -3.2680 H   0  0  0  0  0
   -2.4810    5.6950    2.6010 H   0  0  0  0  0
    0.0000    0.0000    0.0000 H   0  0  0  0  0
   -0.7350    3.0150    3.9260 H   0  0  0  0  0
   -1.0270    1.3110   -0.5840 H   0  0  0  0  0
    3.0920   -2.2910    0.3400 H   0  0  0  0  0
    3.5460   -1.7650   -1.2970 H   0  0  0  0  0
    5.9310   -1.6660   -0.5890 H   0  0  0  0  0
    6.5890   -2.5350    1.6110 H   0  0  0  0  0
    4.8860   -2.8710    2.0160 H   0  0  0  0  0
    6.1150   -0.1300    1.4620 H   0  0  0  0  0
    5.5570   -0.7410    3.0390 H   0  0  0  0  0
    3.8440    0.7210    2.0240 H   0  0  0  0  0
    3.2520   -0.9530    2.1280 H   0  0  0  0  0
    6.4440   -5.3060   -0.7240 H   0  0  0  0  0
   -0.5760   -0.3080   -1.5580 H   0  0  0  0  0
   -2.0250   -1.2100   -3.3280 H   0  0  0  0  0
   -4.0310   -2.5050   -2.7430 H   0  0  0  0  0
   -3.1390   -1.9910    1.4180 H   0  0  0  0  0
   -4.7700   -2.0500    2.4600 H   0  0  0  0  0
   -5.3870   -0.8690    1.2800 H   0  0  0  0  0
   -6.5160   -1.7180    2.3620 H   0  0  0  0  0
   -7.5510   -3.9240    1.4540 H   0  0  0  0  0
   -7.0850   -5.4500   -0.6280 H   0  0  0  0  0
  1  2  1  0  0  0
  1 19  1  0  0  0
  2  3  2  0  0  0
  2  7  1  0  0  0
  3  4  1  0  0  0
  3 42  1  0  0  0
  4  5  2  0  0  0
  4  9  1  0  0  0
  5  6  1  0  0  0
  5 43  1  0  0  0
  6  7  2  0  0  0
  6 44  1  0  0  0
  7  8  1  0  0  0
  8 45  1  0  0  0
  9 10  2  0  0  0
  9 11  1  0  0  0
 10 46  1  0  0  0
 11 47  1  0  0  0
 11 48  1  0  0  0
 12 13  1  0  0  0
 12 14  2  0  0  0
 12 19  1  0  0  0
 14 15  1  0  0  0
 14 20  1  0  0  0
 15 16  1  0  0  0
 15 17  2  0  0  0
 17 18  1  0  0  0
 17 29  1  0  0  0
 18 19  2  0  0  0
 18 49  1  0  0  0
 20 21  1  0  0  0
 20 25  1  0  0  0
 21 22  1  0  0  0
 21 50  1  0  0  0
 21 51  1  0  0  0
 22 23  1  0  0  0
 22 26  1  0  0  0
 22 52  1  0  0  0
 23 24  1  0  0  0
 23 53  1  0  0  0
 23 54  1  0  0  0
 24 25  1  0  0  0
 24 55  1  0  0  0
 24 56  1  0  0  0
 25 57  1  0  0  0
 25 58  1  0  0  0
 26 27  1  0  0  0
 26 28  2  0  0  0
 27 59  1  0  0  0
 29 30  1  0  0  0
 30 31  2  0  0  0
 30 35  1  0  0  0
 31 32  1  0  0  0
 31 60  1  0  0  0
 32 33  2  0  0  0
 32 61  1  0  0  0
 33 34  1  0  0  0
 33 62  1  0  0  0
 34 35  2  0  0  0
 34 36  1  0  0  0
 35 63  1  0  0  0
 36 37  1  0  0  0
 36 39  2  0  0  0
 37 38  1  0  0  0
 37 40  1  0  0  0
 38 64  1  0  0  0
 38 65  1  0  0  0
 38 66  1  0  0  0
 39 41  1  0  0  0
 40 41  2  0  0  0
 40 67  1  0  0  0
 41 68  1  0  0  0
M  CHG  1  18   1
M  END
$$$$
