A2C
  CCTOOLS-0919241044

 46 47  0  0  0  0  0  0  0  0999 V2000
   -6.6470    1.5260   -1.2320 N   0  0  0  0  0
   -5.5020    0.8380   -1.5760 C   0  0  0  0  0
   -4.6060    0.3200   -0.5190 C   0  0  0  0  0
   -4.9190    0.5280    0.8270 C   0  0  0  0  0
   -4.0880    0.0480    1.8150 C   0  0  0  0  0
    4.1750    1.4310   -1.8290 C   0  0  0  0  0
    3.6710    2.1890   -0.7950 C   0  0  0  0  0
    3.2340    1.5740    0.3810 C   0  0  0  0  0
    2.6940    2.3930    1.4880 C   0  0  0  0  0
    2.2870    1.8190    2.5850 N   0  0  0  0  0
   -5.2100    0.6450   -2.8310 N   0  0  0  0  0
   -3.4530   -0.3790   -0.8660 C   0  0  0  0  0
   -2.6120   -0.8650    0.1330 C   0  0  0  0  0
   -2.9330   -0.6450    1.4820 C   0  0  0  0  0
   -2.1170   -1.1150    2.4580 O   0  0  0  0  0
    4.7460   -0.6910   -2.7330 O   0  0  0  0  0
    4.2530    0.0510   -1.7110 C   0  0  0  0  0
    3.8220   -0.5770   -0.5320 C   0  0  0  0  0
    3.3070    0.1900    0.5120 C   0  0  0  0  0
    2.6210    3.7630    1.3600 N   0  0  0  0  0
   -1.3890   -1.6060   -0.2250 C   0  0  0  0  0
   -0.6100   -2.0570    0.7050 N   0  0  0  0  0
    0.6050   -2.7940    0.3480 C   0  0  0  0  0
    1.8340   -1.9980    0.7940 C   0  0  0  0  0
    3.0480   -2.6760    0.3350 N   0  0  0  0  0
    3.9030   -2.0430   -0.4020 C   0  0  0  0  0
   -7.2340    1.8650   -1.9250 H   0  0  0  0  0
   -6.8660    1.6660   -0.2980 H   0  0  0  0  0
   -5.8160    1.0670    1.0930 H   0  0  0  0  0
   -4.3360    0.2120    2.8540 H   0  0  0  0  0
    4.5070    1.9130   -2.7370 H   0  0  0  0  0
    3.6130    3.2630   -0.8930 H   0  0  0  0  0
    2.3380    0.8550    2.6760 H   0  0  0  0  0
   -5.7980    0.9850   -3.5230 H   0  0  0  0  0
   -3.2110   -0.5440   -1.9060 H   0  0  0  0  0
   -2.3330   -2.0100    2.7540 H   0  0  0  0  0
    5.7100   -0.7670   -2.7350 H   0  0  0  0  0
    2.9700   -0.2880    1.4200 H   0  0  0  0  0
    2.9240    4.1900    0.5430 H   0  0  0  0  0
    2.2670    4.3000    2.0860 H   0  0  0  0  0
   -1.1440   -1.7740   -1.2640 H   0  0  0  0  0
    0.6010   -3.7640    0.8460 H   0  0  0  0  0
    0.6390   -2.9390   -0.7310 H   0  0  0  0  0
    1.7930   -0.9960    0.3660 H   0  0  0  0  0
    1.8460   -1.9280    1.8820 H   0  0  0  0  0
    4.6760   -2.5890   -0.9230 H   0  0  0  0  0
  1 27  1  0  0  0
  1 28  1  0  0  0
  2  1  1  0  0  0
  2 11  2  0  0  0
  3  2  1  0  0  0
  4  3  2  0  0  0
  4 29  1  0  0  0
  5  4  1  0  0  0
  5 30  1  0  0  0
  6 17  2  0  0  0
  6 31  1  0  0  0
  7  8  2  0  0  0
  7  6  1  0  0  0
  7 32  1  0  0  0
  8 19  1  0  0  0
  9 20  1  0  0  0
  9  8  1  0  0  0
 10  9  2  0  0  0
 10 33  1  0  0  0
 11 34  1  0  0  0
 12  3  1  0  0  0
 12 35  1  0  0  0
 13 12  2  0  0  0
 14  5  2  0  0  0
 14 13  1  0  0  0
 15 14  1  0  0  0
 15 36  1  0  0  0
 16 37  1  0  0  0
 17 18  1  0  0  0
 17 16  1  0  0  0
 18 26  1  0  0  0
 19 18  2  0  0  0
 19 38  1  0  0  0
 20 39  1  0  0  0
 20 40  1  0  0  0
 21 13  1  0  0  0
 21 41  1  0  0  0
 22 23  1  0  0  0
 22 21  2  0  0  0
 23 42  1  0  0  0
 23 43  1  0  0  0
 24 23  1  0  0  0
 24 44  1  0  0  0
 24 45  1  0  0  0
 25 24  1  0  0  0
 26 25  2  0  0  0
 26 46  1  0  0  0
M  END
$$$$
