ABB
  CCTOOLS-1004241125

 57 59  0  0  1  0  0  0  0  0999 V2000
   -2.2030    0.7530    3.6550 N   0  0  0  0  0
   -3.6410    0.5650    3.9170 C   0  0  0  0  0
   -1.6790   -0.4580    3.0080 C   0  0  0  0  0
   -2.8480   -1.4590    2.8960 C   0  0  0  0  0
   -3.8330   -0.9700    3.9900 C   0  0  0  0  0
   -1.1510   -0.1310    1.6350 C   0  0  0  0  0
   -1.6170    0.7990    1.0120 O   0  0  0  0  0
   -0.1620   -0.8720    1.0980 N   0  0  0  0  0
    0.3500   -0.5540   -0.2360 C   0  0  0  0  0
    1.8240   -0.9530   -0.3240 C   0  0  0  0  0
    2.6250   -0.1820    0.7260 C   0  0  0  0  0
    4.0990   -0.5810    0.6380 C   0  0  0  0  0
    4.8660    0.1570    1.6440 N   0  0  0  0  0
    6.2230   -0.0370    1.7550 C   0  0  0  0  0
    6.8260   -0.8790    0.9640 N   0  0  0  0  0
    6.9420    0.6550    2.6990 N   0  0  0  0  0
   -0.9230   -2.3900   -0.9950 O   0  0  0  0  0
   -0.1820    0.3940   -3.1000 N   0  0  0  0  0
   -0.6200   -0.7490   -2.6170 C   0  0  0  0  0
   -1.5010   -1.4360   -4.0130 S   0  0  0  0  0
   -0.4170    0.7870   -4.3540 C   0  0  0  0  0
   -1.1880   -0.1040   -5.1450 C   0  0  0  0  0
   -1.5180    0.1650   -6.4530 C   0  0  0  0  0
   -1.0890    1.3430   -7.0320 C   0  0  0  0  0
   -0.3310    2.2360   -6.2830 C   0  0  0  0  0
    0.0010    1.9830   -4.9910 C   0  0  0  0  0
   -3.4630   -1.4720    5.2760 O   0  0  0  0  0
   -1.4880    1.8560    3.9540 C   0  0  0  0  0
   -2.1580    3.0320    4.6150 C   0  0  0  0  0
   -0.3040    1.9010    3.6910 O   0  0  0  0  0
   -0.4380   -1.3140   -1.2710 C   0  0  0  0  0
   -3.9180    1.0270    4.8650 H   0  0  0  0  0
   -4.2330    0.9830    3.1030 H   0  0  0  0  0
   -0.8830   -0.8840    3.6190 H   0  0  0  0  0
   -2.5110   -2.4740    3.1070 H   0  0  0  0  0
   -3.3080   -1.4010    1.9090 H   0  0  0  0  0
   -4.8590   -1.2470    3.7450 H   0  0  0  0  0
    0.2090   -1.6170    1.5960 H   0  0  0  0  0
    0.2510    0.5150   -0.4170 H   0  0  0  0  0
    1.9220   -2.0230   -0.1430 H   0  0  0  0  0
    2.2060   -0.7160   -1.3170 H   0  0  0  0  0
    2.5270    0.8870    0.5450 H   0  0  0  0  0
    2.2430   -0.4190    1.7200 H   0  0  0  0  0
    4.1980   -1.6510    0.8190 H   0  0  0  0  0
    4.4810   -0.3440   -0.3540 H   0  0  0  0  0
    4.4170    0.7830    2.2330 H   0  0  0  0  0
    7.7830   -1.0170    1.0410 H   0  0  0  0  0
    7.8990    0.5170    2.7770 H   0  0  0  0  0
    6.4930    1.2810    3.2880 H   0  0  0  0  0
   -2.1060   -0.5380   -7.0220 H   0  0  0  0  0
   -1.3390    1.5680   -8.0580 H   0  0  0  0  0
    0.0000    3.1560   -6.7410 H   0  0  0  0  0
    0.5910    2.7020   -4.4420 H   0  0  0  0  0
   -4.0500   -1.0520    5.9190 H   0  0  0  0  0
   -1.4260    3.8240    4.7770 H   0  0  0  0  0
   -2.9570    3.4030    3.9730 H   0  0  0  0  0
   -2.5760    2.7220    5.5720 H   0  0  0  0  0
  1  2  1  0  0  0
  1  3  1  0  0  0
  1 28  1  0  0  0
  2  5  1  0  0  0
  2 32  1  0  0  0
  2 33  1  0  0  0
  3  4  1  0  0  0
  3  6  1  0  0  0
  3 34  1  0  0  0
  4  5  1  0  0  0
  4 35  1  0  0  0
  4 36  1  0  0  0
  5 27  1  0  0  0
  5 37  1  0  0  0
  6  7  2  0  0  0
  6  8  1  0  0  0
  8  9  1  0  0  0
  8 38  1  0  0  0
  9 10  1  0  0  0
  9 31  1  0  0  0
  9 39  1  0  0  0
 10 11  1  0  0  0
 10 40  1  0  0  0
 10 41  1  0  0  0
 11 12  1  0  0  0
 11 42  1  0  0  0
 11 43  1  0  0  0
 12 13  1  0  0  0
 12 44  1  0  0  0
 12 45  1  0  0  0
 13 14  1  0  0  0
 13 46  1  0  0  0
 14 15  2  0  0  0
 14 16  1  0  0  0
 15 47  1  0  0  0
 16 48  1  0  0  0
 16 49  1  0  0  0
 17 31  2  0  0  0
 18 19  2  0  0  0
 18 21  1  0  0  0
 19 20  1  0  0  0
 19 31  1  0  0  0
 20 22  1  0  0  0
 21 22  2  0  0  0
 21 26  1  0  0  0
 22 23  1  0  0  0
 23 24  2  0  0  0
 23 50  1  0  0  0
 24 25  1  0  0  0
 24 51  1  0  0  0
 25 26  2  0  0  0
 25 52  1  0  0  0
 26 53  1  0  0  0
 27 54  1  0  0  0
 28 29  1  0  0  0
 28 30  2  0  0  0
 29 55  1  0  0  0
 29 56  1  0  0  0
 29 57  1  0  0  0
M  END
$$$$
