ANH
  CCTOOLS-0919241029

 54 55  0  0  1  0  0  0  0  0999 V2000
    1.4830   -0.5150    1.3180 N   0  0  0  0  0
    1.6070   -0.0560    2.7040 C   0  0  0  0  0
    0.7650   -0.9530    3.6150 C   0  0  0  0  0
    3.0510   -0.1240    3.1290 C   0  0  0  0  0
    3.4760    0.6540    3.9500 O   0  0  0  0  0
    3.8650   -1.0480    2.5950 O   0  0  0  0  0
    5.2570   -1.1130    3.0040 C   0  0  0  0  0
   -0.6780   -0.8860    3.1910 C   0  0  0  0  0
   -1.1640   -1.7770    2.2510 C   0  0  0  0  0
   -2.4880   -1.7220    1.8560 C   0  0  0  0  0
   -3.3340   -0.7750    2.3980 C   0  0  0  0  0
   -2.8500    0.1250    3.3460 C   0  0  0  0  0
   -1.5150    0.0600    3.7440 C   0  0  0  0  0
   -3.7520    1.1440    3.9310 C   0  0  0  0  0
   -5.0720    1.2020    3.5390 N   0  0  0  0  0
   -3.2980    1.9840    4.8160 N   0  0  0  0  0
    1.5880    0.3670    0.3050 C   0  0  0  0  0
    1.4610   -0.1040   -1.1200 C   0  0  0  0  0
    1.6100    1.0360   -2.0260 N   0  0  0  0  0
    1.7840    1.5400    0.5410 O   0  0  0  0  0
   -3.9440   -1.4620   -4.8560 C   0  0  0  0  0
   -2.5810   -0.8950   -4.5590 C   0  0  0  0  0
   -2.3890    0.4740   -4.5500 C   0  0  0  0  0
   -1.1380    0.9950   -4.2760 C   0  0  0  0  0
   -0.0790    0.1460   -4.0120 C   0  0  0  0  0
   -0.2690   -1.2220   -4.0270 C   0  0  0  0  0
   -1.5210   -1.7430   -4.2960 C   0  0  0  0  0
    1.5150    0.8110   -3.6640 S   0  0  0  0  0
    1.5240    2.1120   -4.2350 O   0  0  0  0  0
    2.4390   -0.2250   -3.9650 O   0  0  0  0  0
    1.3260   -1.4530    1.1300 H   0  0  0  0  0
    1.2530    0.9710    2.7800 H   0  0  0  0  0
    1.1190   -1.9810    3.5390 H   0  0  0  0  0
    0.8570   -0.6120    4.6460 H   0  0  0  0  0
    5.7560   -1.9190    2.4670 H   0  0  0  0  0
    5.7470   -0.1660    2.7760 H   0  0  0  0  0
    5.3120   -1.3010    4.0760 H   0  0  0  0  0
   -0.5060   -2.5190    1.8230 H   0  0  0  0  0
   -2.8620   -2.4200    1.1220 H   0  0  0  0  0
   -4.3680   -0.7320    2.0890 H   0  0  0  0  0
   -1.1350    0.7560    4.4780 H   0  0  0  0  0
   -5.6620    1.8690    3.9230 H   0  0  0  0  0
   -5.4100    0.5760    2.8800 H   0  0  0  0  0
   -3.8880    2.6510    5.1990 H   0  0  0  0  0
    2.2370   -0.8390   -1.3300 H   0  0  0  0  0
    0.4810   -0.5580   -1.2660 H   0  0  0  0  0
    1.7650    1.9240   -1.6680 H   0  0  0  0  0
   -4.0450   -1.6250   -5.9290 H   0  0  0  0  0
   -4.0650   -2.4110   -4.3330 H   0  0  0  0  0
   -4.7100   -0.7630   -4.5210 H   0  0  0  0  0
   -3.2170    1.1360   -4.7550 H   0  0  0  0  0
   -0.9880    2.0640   -4.2690 H   0  0  0  0  0
    0.5580   -1.8840   -3.8210 H   0  0  0  0  0
   -1.6710   -2.8120   -4.3040 H   0  0  0  0  0
  1  2  1  0  0  0
  1 17  1  0  0  0
  1 31  1  0  0  0
  2  3  1  0  0  0
  2  4  1  0  0  0
  2 32  1  0  0  0
  3  8  1  0  0  0
  3 33  1  0  0  0
  3 34  1  0  0  0
  4  5  2  0  0  0
  4  6  1  0  0  0
  6  7  1  0  0  0
  7 35  1  0  0  0
  7 36  1  0  0  0
  7 37  1  0  0  0
  8  9  2  0  0  0
  8 13  1  0  0  0
  9 10  1  0  0  0
  9 38  1  0  0  0
 10 11  2  0  0  0
 10 39  1  0  0  0
 11 12  1  0  0  0
 11 40  1  0  0  0
 12 13  2  0  0  0
 12 14  1  0  0  0
 13 41  1  0  0  0
 14 15  1  0  0  0
 14 16  2  0  0  0
 15 42  1  0  0  0
 15 43  1  0  0  0
 16 44  1  0  0  0
 17 18  1  0  0  0
 17 20  2  0  0  0
 18 19  1  0  0  0
 18 45  1  0  0  0
 18 46  1  0  0  0
 19 28  1  0  0  0
 19 47  1  0  0  0
 21 22  1  0  0  0
 21 48  1  0  0  0
 21 49  1  0  0  0
 21 50  1  0  0  0
 22 23  1  0  0  0
 22 27  2  0  0  0
 23 24  2  0  0  0
 23 51  1  0  0  0
 24 25  1  0  0  0
 24 52  1  0  0  0
 25 26  2  0  0  0
 25 28  1  0  0  0
 26 27  1  0  0  0
 26 53  1  0  0  0
 27 54  1  0  0  0
 28 29  2  0  0  0
 28 30  2  0  0  0
M  END
$$$$
