BAB
  CCTOOLS-0919241032

 44 47  0  0  0  0  0  0  0  0999 V2000
   -2.7400   -9.7690   -1.6330 C   0  0  0  0  0
   -1.9510   -9.8220   -2.7840 C   0  0  0  0  0
   -1.9060   -8.7450   -3.6780 C   0  0  0  0  0
   -2.6750   -7.6040   -3.3920 C   0  0  0  0  0
   -3.4510   -7.5810   -2.2370 C   0  0  0  0  0
   -3.5110   -8.6420   -1.3330 C   0  0  0  0  0
   -2.7630  -10.9080   -0.7280 C   0  0  0  0  0
   -3.6320   -5.7330   -3.3800 C   0  0  0  0  0
   -4.1220   -4.3430   -3.7090 C   0  0  0  0  0
   -2.5780  -12.2130   -1.1450 N   0  3  0  0  0
   -2.9720  -10.7920    0.6330 N   0  0  0  0  0
   -2.8070   -6.4270   -4.0940 N   0  0  0  0  0
   -4.0600   -6.3520   -2.2590 N   0  0  0  0  0
   -0.2070   -0.0960   -1.9890 C   0  0  0  0  0
   -0.9700   -0.1070   -0.8020 C   0  0  0  0  0
   -2.0710   -0.9560   -0.6570 C   0  0  0  0  0
   -2.3750   -1.7750   -1.7180 C   0  0  0  0  0
   -1.6110   -1.7640   -2.9090 C   0  0  0  0  0
   -0.5260   -0.9330   -3.0620 C   0  0  0  0  0
    0.9320    0.8030   -2.0960 C   0  0  0  0  0
   -3.2640   -3.2760   -3.1440 C   0  0  0  0  0
    1.0030    2.0200   -1.4450 N   0  3  0  0  0
    2.0500    0.5240   -2.8600 N   0  0  0  0  0
   -3.3970   -2.7190   -1.8800 N   0  3  0  0  0
   -2.1740   -2.7010   -3.7830 N   0  0  0  0  0
   -1.3580  -10.7080   -3.0010 H   0  0  0  0  0
   -1.2900   -8.7950   -4.5700 H   0  0  0  0  0
   -4.1280   -8.5900   -0.4410 H   0  0  0  0  0
   -4.1820   -4.2360   -4.8020 H   0  0  0  0  0
   -5.1530   -4.2210   -3.3470 H   0  0  0  0  0
   -2.9880  -11.6050    1.2410 H   0  0  0  0  0
   -3.0870   -9.8910    1.0820 H   0  0  0  0  0
   -4.7020   -5.9940   -1.5650 H   0  0  0  0  0
   -0.7030    0.5540    0.0210 H   0  0  0  0  0
   -2.6550   -0.9620    0.2560 H   0  0  0  0  0
    0.0560   -0.9300   -3.9780 H   0  0  0  0  0
    2.8290    1.1710   -2.9210 H   0  0  0  0  0
    2.1500   -0.3500   -3.3640 H   0  0  0  0  0
   -1.8220   -2.9070   -4.7050 H   0  0  0  0  0
    1.8080    2.6300   -1.5350 H   0  0  0  0  0
    0.2630    2.3380   -0.8270 H   0  0  0  0  0
   -4.0870   -2.9410   -1.1800 H   0  0  0  0  0
   -2.5990  -12.9910   -0.4950 H   0  0  0  0  0
   -2.3860  -12.4400   -2.1150 H   0  0  0  0  0
  1  2  1  0  0  0
  1  6  2  0  0  0
  1  7  1  0  0  0
  2  3  2  0  0  0
  2 26  1  0  0  0
  3  4  1  0  0  0
  3 27  1  0  0  0
  4  5  2  0  0  0
  4 12  1  0  0  0
  5  6  1  0  0  0
  5 13  1  0  0  0
  6 28  1  0  0  0
  7 10  2  0  0  0
  7 11  1  0  0  0
  8  9  1  0  0  0
  8 12  2  0  0  0
  8 13  1  0  0  0
  9 21  1  0  0  0
  9 29  1  0  0  0
  9 30  1  0  0  0
 11 31  1  0  0  0
 11 32  1  0  0  0
 13 33  1  0  0  0
 14 15  1  0  0  0
 14 19  2  0  0  0
 14 20  1  0  0  0
 15 16  2  0  0  0
 15 34  1  0  0  0
 16 17  1  0  0  0
 16 35  1  0  0  0
 17 18  2  0  0  0
 17 24  1  0  0  0
 18 19  1  0  0  0
 18 25  1  0  0  0
 19 36  1  0  0  0
 20 22  2  0  0  0
 20 23  1  0  0  0
 21 24  2  0  0  0
 21 25  1  0  0  0
 23 37  1  0  0  0
 23 38  1  0  0  0
 25 39  1  0  0  0
 40 22  1  0  0  0
 41 22  1  0  0  0
 42 24  1  0  0  0
 43 10  1  0  0  0
 44 10  1  0  0  0
M  CHG  1  10   1
M  CHG  1  22   1
M  CHG  1  24   1
M  END
$$$$
