BAO
  CCTOOLS-0919241032

 40 43  0  0  0  0  0  0  0  0999 V2000
    0.5910    0.0000    5.4750 C   0  0  0  0  0
    1.7770    0.0000    4.7290 C   0  0  0  0  0
    1.7390    0.0000    3.3680 C   0  0  0  0  0
    0.5060   -0.0000    2.6990 C   0  0  0  0  0
   -0.6900   -0.0000    3.4460 C   0  0  0  0  0
   -0.6410   -0.0050    4.8320 C   0  0  0  0  0
    0.6500    0.0000    6.9540 C   0  0  0  0  0
   -0.4500    0.0000    7.6500 N   0  0  0  0  0
    1.8710    0.0000    7.5950 N   0  0  0  0  0
    0.1640    0.0000    1.4000 N   0  0  0  0  0
   -1.7160    0.0000    2.5270 N   0  0  0  0  0
   -1.1410    0.0000    1.2840 C   0  0  0  0  0
    0.5820   -0.0000   -5.4680 C   0  0  0  0  0
    1.7690   -0.0000   -4.7240 C   0  0  0  0  0
    1.7340   -0.0000   -3.3630 C   0  0  0  0  0
    0.5010   -0.0000   -2.6920 C   0  0  0  0  0
   -0.6960   -0.0000   -3.4370 C   0  0  0  0  0
   -0.6490    0.0000   -4.8220 C   0  0  0  0  0
    0.6390   -0.0000   -6.9470 C   0  0  0  0  0
   -0.4630   -0.0000   -7.6410 N   0  0  0  0  0
    1.8580   -0.0000   -7.5890 N   0  0  0  0  0
    0.1620    0.0050   -1.3920 N   0  0  0  0  0
   -1.7200    0.0000   -2.5160 N   0  0  0  0  0
   -1.1430   -0.0000   -1.2740 C   0  0  0  0  0
   -1.8800    0.0000    0.0050 C   0  0  0  0  0
   -3.0960    0.0000    0.0060 O   0  0  0  0  0
    2.7290    0.0000    5.2380 H   0  0  0  0  0
    2.6600    0.0000    2.8030 H   0  0  0  0  0
   -1.5550   -0.0110    5.4080 H   0  0  0  0  0
   -1.3090    0.0000    7.2000 H   0  0  0  0  0
    1.9100    0.0010    8.5640 H   0  0  0  0  0
    2.6910   -0.0030    7.0760 H   0  0  0  0  0
   -2.6660   -0.0000    2.7230 H   0  0  0  0  0
    2.7210   -0.0000   -5.2340 H   0  0  0  0  0
    2.6550   -0.0000   -2.7990 H   0  0  0  0  0
   -1.5640   -0.0000   -5.3970 H   0  0  0  0  0
   -0.4250   -0.0010   -8.6110 H   0  0  0  0  0
    1.8960   -0.0010   -8.5590 H   0  0  0  0  0
    2.6790   -0.0000   -7.0720 H   0  0  0  0  0
   -2.6700    0.0000   -2.7100 H   0  0  0  0  0
  1  2  1  0  0  0
  1  6  2  0  0  0
  1  7  1  0  0  0
  2  3  2  0  0  0
  2 27  1  0  0  0
  3  4  1  0  0  0
  3 28  1  0  0  0
  4  5  2  0  0  0
  4 10  1  0  0  0
  5  6  1  0  0  0
  5 11  1  0  0  0
  6 29  1  0  0  0
  7  8  2  0  0  0
  7  9  1  0  0  0
  8 30  1  0  0  0
  9 31  1  0  0  0
  9 32  1  0  0  0
 10 12  2  0  0  0
 11 12  1  0  0  0
 11 33  1  0  0  0
 12 25  1  0  0  0
 13 14  1  0  0  0
 13 18  2  0  0  0
 13 19  1  0  0  0
 14 15  2  0  0  0
 14 34  1  0  0  0
 15 16  1  0  0  0
 15 35  1  0  0  0
 16 17  2  0  0  0
 16 22  1  0  0  0
 17 18  1  0  0  0
 17 23  1  0  0  0
 18 36  1  0  0  0
 19 20  2  0  0  0
 19 21  1  0  0  0
 20 37  1  0  0  0
 21 38  1  0  0  0
 21 39  1  0  0  0
 22 24  2  0  0  0
 23 24  1  0  0  0
 23 40  1  0  0  0
 24 25  1  0  0  0
 25 26  2  0  0  0
M  END
$$$$
