BBA
  CCTOOLS-0919241032

 56 58  0  0  1  0  0  0  0  0999 V2000
   -2.0830   -0.0330   -3.3230 C   0  0  0  0  0
   -0.5810   -0.0770   -3.4370 C   0  0  0  0  0
    0.0610   -1.2920   -3.5970 C   0  0  0  0  0
    1.4360   -1.3390   -3.7030 C   0  0  0  0  0
    0.1480    1.0950   -3.3800 C   0  0  0  0  0
    1.5240    1.0600   -3.4790 C   0  0  0  0  0
    2.1780   -0.1590   -3.6470 C   0  0  0  0  0
    3.6540   -0.2030   -3.7600 C   0  0  0  0  0
    4.3920    0.9460   -3.5850 N   0  0  0  0  0
    4.2530   -1.3280   -4.0250 N   0  0  0  0  0
   -0.2510   -0.0070    0.5380 C   0  0  0  0  0
    0.1960   -0.0370    1.9770 C   0  0  0  0  0
   -0.0040   -1.1750    2.7380 C   0  0  0  0  0
    0.4030   -1.2080    4.0550 C   0  0  0  0  0
    0.8120    1.0710    2.5290 C   0  0  0  0  0
    1.2200    1.0520    3.8470 C   0  0  0  0  0
    1.0190   -0.0910    4.6200 C   0  0  0  0  0
    1.4590   -0.1200    6.0340 C   0  0  0  0  0
    1.9600    1.0190    6.6220 N   0  0  0  0  0
    1.3710   -1.2230    6.7200 N   0  0  0  0  0
   -2.4920   -0.2890   -1.8710 C   0  0  0  0  0
   -4.0370   -0.3740   -1.7770 C   0  0  0  0  0
   -4.4330   -0.8480   -0.4410 C   0  0  0  0  0
   -4.0500    0.0770    0.7040 C   0  0  0  0  0
   -2.6550   -0.2630    1.1730 C   0  0  0  0  0
   -1.6360    0.6350    0.4480 C   0  0  0  0  0
   -1.9990    0.8250   -1.0130 C   0  0  0  0  0
   -1.8840    1.9240   -1.5010 O   0  0  0  0  0
   -2.4420    0.9470   -3.6340 H   0  0  0  0  0
   -2.5190   -0.7990   -3.9630 H   0  0  0  0  0
   -0.5130   -2.2050   -3.6400 H   0  0  0  0  0
    1.9370   -2.2870   -3.8290 H   0  0  0  0  0
   -0.3580    2.0400   -3.2540 H   0  0  0  0  0
    2.0930    1.9770   -3.4350 H   0  0  0  0  0
    5.3610    0.9050   -3.5850 H   0  0  0  0  0
    3.9430    1.7980   -3.4650 H   0  0  0  0  0
    3.7330   -2.1380   -4.1480 H   0  0  0  0  0
   -0.2970   -1.0250    0.1510 H   0  0  0  0  0
    0.4580    0.5730   -0.0510 H   0  0  0  0  0
   -0.4820   -2.0380    2.2990 H   0  0  0  0  0
    0.2440   -2.0960    4.6490 H   0  0  0  0  0
    0.9670    1.9560    1.9300 H   0  0  0  0  0
    1.6970    1.9190    4.2790 H   0  0  0  0  0
    2.3210    0.9820    7.5220 H   0  0  0  0  0
    1.9520    1.8590    6.1370 H   0  0  0  0  0
    1.6590   -1.2420    7.6460 H   0  0  0  0  0
   -2.0550   -1.2280   -1.5310 H   0  0  0  0  0
   -4.4650    0.6120   -1.9530 H   0  0  0  0  0
   -4.4070   -1.0680   -2.5320 H   0  0  0  0  0
   -5.5150   -0.9790   -0.4300 H   0  0  0  0  0
   -3.9700   -1.8190   -0.2690 H   0  0  0  0  0
   -4.0770    1.1110    0.3620 H   0  0  0  0  0
   -4.7530   -0.0520    1.5280 H   0  0  0  0  0
   -2.5840   -0.0990    2.2490 H   0  0  0  0  0
   -2.4420   -1.3080    0.9500 H   0  0  0  0  0
   -1.6080    1.6090    0.9370 H   0  0  0  0  0
  1  2  1  0  0  0
  1 21  1  0  0  0
  1 29  1  0  0  0
  1 30  1  0  0  0
  2  3  2  0  0  0
  2  5  1  0  0  0
  3  4  1  0  0  0
  3 31  1  0  0  0
  4  7  2  0  0  0
  4 32  1  0  0  0
  5  6  2  0  0  0
  5 33  1  0  0  0
  6  7  1  0  0  0
  6 34  1  0  0  0
  7  8  1  0  0  0
  8  9  1  0  0  0
  8 10  2  0  0  0
  9 35  1  0  0  0
  9 36  1  0  0  0
 10 37  1  0  0  0
 11 12  1  0  0  0
 11 26  1  0  0  0
 11 38  1  0  0  0
 11 39  1  0  0  0
 12 13  2  0  0  0
 12 15  1  0  0  0
 13 14  1  0  0  0
 13 40  1  0  0  0
 14 17  2  0  0  0
 14 41  1  0  0  0
 15 16  2  0  0  0
 15 42  1  0  0  0
 16 17  1  0  0  0
 16 43  1  0  0  0
 17 18  1  0  0  0
 18 19  1  0  0  0
 18 20  2  0  0  0
 19 44  1  0  0  0
 19 45  1  0  0  0
 20 46  1  0  0  0
 21 22  1  0  0  0
 21 27  1  0  0  0
 21 47  1  0  0  0
 22 23  1  0  0  0
 22 48  1  0  0  0
 22 49  1  0  0  0
 23 24  1  0  0  0
 23 50  1  0  0  0
 23 51  1  0  0  0
 24 25  1  0  0  0
 24 52  1  0  0  0
 24 53  1  0  0  0
 25 26  1  0  0  0
 25 54  1  0  0  0
 25 55  1  0  0  0
 26 27  1  0  0  0
 26 56  1  0  0  0
 27 28  2  0  0  0
M  END
$$$$
