BOZ
  CCTOOLS-0919241034

 45 49  0  0  0  0  0  0  0  0999 V2000
   -5.7490    0.8570    0.1580 C   0  0  0  0  0
   -5.0170    2.0310    0.2780 C   0  0  0  0  0
   -3.6540    2.0020    0.3210 C   0  0  0  0  0
   -2.9790    0.7760    0.2450 C   0  0  0  0  0
   -3.7230   -0.4160    0.1230 C   0  0  0  0  0
   -5.1110   -0.3620    0.0870 C   0  0  0  0  0
   -7.2540    0.9160    0.1130 C   0  0  0  0  0
   -7.7640   -0.2040   -0.6900 N   0  0  0  0  0
   -7.6760    2.1850   -0.4940 N   0  0  0  0  0
   -1.6790    0.4350    0.2600 N   0  0  0  0  0
   -2.8040   -1.4390    0.0710 N   0  0  0  0  0
   -1.5610   -0.8670    0.1590 C   0  0  0  0  0
    4.5840    1.8970    0.1570 C   0  0  0  0  0
    5.2340    0.6780    0.0120 C   0  0  0  0  0
    4.5270   -0.4870   -0.0490 C   0  0  0  0  0
    3.1280   -0.4590    0.0370 C   0  0  0  0  0
    2.4690    0.7790    0.1850 C   0  0  0  0  0
    3.2100    1.9520    0.2430 C   0  0  0  0  0
    5.3880    3.1700    0.2200 C   0  0  0  0  0
    6.6200    3.0100   -0.5640 N   0  0  0  0  0
    4.5960    4.2780   -0.3330 N   0  0  0  0  0
    2.1820   -1.4140    0.0160 N   0  0  0  0  0
    1.1240    0.4930    0.2400 N   0  0  0  0  0
    0.9970   -0.8670    0.1290 C   0  0  0  0  0
   -0.2820   -1.6050    0.1410 C   0  0  0  0  0
   -0.2830   -2.8210    0.1360 O   0  0  0  0  0
    2.4950   -3.1690   -0.1470 ZN  0  2  0  0  0
   -5.5330    2.9780    0.3370 H   0  0  0  0  0
   -3.0950    2.9220    0.4140 H   0  0  0  0  0
   -5.6860   -1.2720   -0.0010 H   0  0  0  0  0
   -7.6510    0.8470    1.1250 H   0  0  0  0  0
   -7.3730   -0.1000   -1.6140 H   0  0  0  0  0
   -7.3670   -1.0450   -0.3000 H   0  0  0  0  0
   -7.3770    2.1600   -1.4570 H   0  0  0  0  0
   -8.6850    2.1810   -0.5040 H   0  0  0  0  0
   -2.9990   -2.3850   -0.0120 H   0  0  0  0  0
    6.3120    0.6520   -0.0550 H   0  0  0  0  0
    5.0430   -1.4280   -0.1620 H   0  0  0  0  0
    2.7110    2.9040    0.3550 H   0  0  0  0  0
    5.6420    3.3890    1.2570 H   0  0  0  0  0
    6.3370    2.8110   -1.5120 H   0  0  0  0  0
    7.0730    3.9120   -0.5800 H   0  0  0  0  0
    3.8170    4.4180    0.2920 H   0  0  0  0  0
    5.1710    5.1040   -0.2710 H   0  0  0  0  0
    0.4020    1.1340    0.3390 H   0  0  0  0  0
  1  2  1  0  0  0
  1  6  2  0  0  0
  1  7  1  0  0  0
  2  3  2  0  0  0
  2 28  1  0  0  0
  3  4  1  0  0  0
  3 29  1  0  0  0
  4  5  2  0  0  0
  4 10  1  0  0  0
  5  6  1  0  0  0
  5 11  1  0  0  0
  6 30  1  0  0  0
  7  8  1  0  0  0
  7  9  1  0  0  0
  7 31  1  0  0  0
  8 32  1  0  0  0
  8 33  1  0  0  0
  9 34  1  0  0  0
  9 35  1  0  0  0
 10 12  2  0  0  0
 11 12  1  0  0  0
 11 36  1  0  0  0
 12 25  1  0  0  0
 13 14  1  0  0  0
 13 18  2  0  0  0
 13 19  1  0  0  0
 14 15  2  0  0  0
 14 37  1  0  0  0
 15 16  1  0  0  0
 15 38  1  0  0  0
 16 17  2  0  0  0
 16 22  1  0  0  0
 17 18  1  0  0  0
 17 23  1  0  0  0
 18 39  1  0  0  0
 19 20  1  0  0  0
 19 21  1  0  0  0
 19 40  1  0  0  0
 20 41  1  0  0  0
 20 42  1  0  0  0
 21 43  1  0  0  0
 21 44  1  0  0  0
 22 24  2  0  0  0
 22 27  1  0  0  0
 23 24  1  0  0  0
 23 45  1  0  0  0
 24 25  1  0  0  0
 25 26  2  0  0  0
 27 10  1  0  0  0
M  CHG  1  27   2
M  END
$$$$
