BPO
  CCTOOLS-0919241034

 63 66  0  0  1  0  0  0  0  0999 V2000
    0.5950    0.1450   -6.4620 C   0  0  0  0  0
   -0.2760   -1.4810    4.9320 C   0  0  0  0  0
    1.4660    0.6150    9.2250 N   0  0  0  0  0
    0.2800   -1.0630    7.2240 C   0  0  0  0  0
   -0.2160   -0.2380    0.7980 C   0  0  0  0  0
   -0.1830   -1.4610   -0.0810 C   0  0  0  0  0
    0.3140   -0.2710    4.5620 C   0  0  0  0  0
    0.8860    0.5470    5.5340 C   0  0  0  0  0
    0.8740    0.1480    6.8670 C   0  0  0  0  0
   -1.3560    1.7500   -0.2060 C   0  0  0  0  0
   -1.4550    0.5640    0.4970 C   0  0  0  0  0
    1.4840    1.0090    7.9050 C   0  0  0  0  0
    0.3270    0.1420    3.1420 C   0  0  0  0  0
   -2.4930    2.4870   -0.4820 C   0  0  0  0  0
   -0.3810   -2.0960   -3.5480 C   0  0  0  0  0
    0.2690   -2.5370   -2.2330 C   0  0  0  0  0
   -3.8270    0.8510    0.6460 C   0  0  0  0  0
   -3.7280    2.0370   -0.0560 C   0  0  0  0  0
   -2.6910    0.1120    0.9180 C   0  0  0  0  0
    0.3780   -0.8920   -4.1100 C   0  0  0  0  0
   -0.2380   -0.4770   -5.4210 C   0  0  0  0  0
    0.3000    0.2700   -3.1180 C   0  0  0  0  0
   -0.2890   -1.8680    6.2570 C   0  0  0  0  0
   -0.6190   -2.5150    0.3300 O   0  0  0  0  0
    0.8420    1.1960    2.8210 O   0  0  0  0  0
   -0.2290   -0.6480    2.2040 N   0  0  0  0  0
    2.0380    2.1400    7.5700 N   0  0  0  0  0
    0.3290   -1.3830   -1.3250 N   0  0  0  0  0
   -1.4210   -0.6550   -5.6180 O   0  0  0  0  0
    0.9530   -0.1410   -1.8010 C   0  0  0  0  0
    0.0260    0.5320   -7.6790 C   0  0  0  0  0
    0.8140    1.1150   -8.6490 C   0  0  0  0  0
    2.1640    1.3160   -8.4210 C   0  0  0  0  0
    2.7340    0.9360   -7.2190 C   0  0  0  0  0
    1.9590    0.3580   -6.2360 C   0  0  0  0  0
   -0.7230   -2.1150    4.1810 H   0  0  0  0  0
    1.8660    1.1800    9.9050 H   0  0  0  0  0
    1.0500   -0.2240    9.4750 H   0  0  0  0  0
    0.2670   -1.3720    8.2590 H   0  0  0  0  0
    0.6670    0.3710    0.6060 H   0  0  0  0  0
    1.3430    1.4840    5.2520 H   0  0  0  0  0
   -0.3910    2.1020   -0.5390 H   0  0  0  0  0
   -2.4150    3.4140   -1.0310 H   0  0  0  0  0
   -0.3450   -2.9160   -4.2650 H   0  0  0  0  0
   -1.4190   -1.8170   -3.3650 H   0  0  0  0  0
    1.2770   -2.9010   -2.4280 H   0  0  0  0  0
   -0.3250   -3.3290   -1.7780 H   0  0  0  0  0
   -4.7930    0.4990    0.9790 H   0  0  0  0  0
   -4.6160    2.6130   -0.2710 H   0  0  0  0  0
   -2.7680   -0.8140    1.4670 H   0  0  0  0  0
    1.4210   -1.1640   -4.2690 H   0  0  0  0  0
    0.8210    1.1340   -3.5300 H   0  0  0  0  0
   -0.7430    0.5260   -2.9390 H   0  0  0  0  0
   -0.7460   -2.8050    6.5390 H   0  0  0  0  0
   -0.6400   -1.4880    2.4600 H   0  0  0  0  0
    2.0500    2.4170    6.6410 H   0  0  0  0  0
    0.8130    0.6460   -1.0610 H   0  0  0  0  0
    2.0180   -0.3110   -1.9580 H   0  0  0  0  0
   -1.0260    0.3750   -7.8590 H   0  0  0  0  0
    0.3760    1.4140   -9.5900 H   0  0  0  0  0
    2.7760    1.7720   -9.1850 H   0  0  0  0  0
    3.7880    1.0960   -7.0480 H   0  0  0  0  0
    2.4050    0.0620   -5.2980 H   0  0  0  0  0
  1 21  1  0  0  0
  1 31  2  0  0  0
  1 35  1  0  0  0
  2  7  2  0  0  0
  2 23  1  0  0  0
  2 36  1  0  0  0
  3 12  1  0  0  0
  3 37  1  0  0  0
  3 38  1  0  0  0
  4  9  1  0  0  0
  4 23  2  0  0  0
  4 39  1  0  0  0
  5  6  1  0  0  0
  5 11  1  0  0  0
  5 26  1  0  0  0
  5 40  1  0  0  0
  6 24  2  0  0  0
  6 28  1  0  0  0
  7  8  1  0  0  0
  7 13  1  0  0  0
  8  9  2  0  0  0
  8 41  1  0  0  0
  9 12  1  0  0  0
 10 11  2  0  0  0
 10 14  1  0  0  0
 10 42  1  0  0  0
 11 19  1  0  0  0
 12 27  2  0  0  0
 13 25  2  0  0  0
 13 26  1  0  0  0
 14 18  2  0  0  0
 14 43  1  0  0  0
 15 16  1  0  0  0
 15 20  1  0  0  0
 15 44  1  0  0  0
 15 45  1  0  0  0
 16 28  1  0  0  0
 16 46  1  0  0  0
 16 47  1  0  0  0
 17 18  1  0  0  0
 17 19  2  0  0  0
 17 48  1  0  0  0
 18 49  1  0  0  0
 19 50  1  0  0  0
 20 21  1  0  0  0
 20 22  1  0  0  0
 20 51  1  0  0  0
 21 29  2  0  0  0
 22 30  1  0  0  0
 22 52  1  0  0  0
 22 53  1  0  0  0
 23 54  1  0  0  0
 26 55  1  0  0  0
 27 56  1  0  0  0
 28 30  1  0  0  0
 30 57  1  0  0  0
 30 58  1  0  0  0
 31 32  1  0  0  0
 31 59  1  0  0  0
 32 33  2  0  0  0
 32 60  1  0  0  0
 33 34  1  0  0  0
 33 61  1  0  0  0
 34 35  2  0  0  0
 34 62  1  0  0  0
 35 63  1  0  0  0
M  END
$$$$
