BR6
  CCTOOLS-0919241034

 30 31  0  0  0  0  0  0  0  0999 V2000
   -5.6550    0.1300   -0.0300 BR  0  0  0  0  0
   -3.7760   -0.0770    0.0240 C   0  0  0  0  0
    0.3360   -0.5290    0.1440 N   0  0  0  0  0
   -3.1880   -1.1890   -0.5550 C   0  0  0  0  0
    7.6200    0.9260   -0.2510 N   0  0  0  0  0
   -1.8180   -1.3460   -0.5180 C   0  0  0  0  0
    7.3190   -1.2990    0.3400 N   0  0  0  0  0
   -2.9940    0.8870    0.6380 C   0  0  0  0  0
   -1.6230    0.7430    0.6820 C   0  0  0  0  0
   -1.0230   -0.3800    0.1040 C   0  0  0  0  0
    1.1100    0.4810   -0.1300 C   0  0  0  0  0
    2.5730    0.3200   -0.0880 C   0  0  0  0  0
    3.1320   -0.9190    0.2410 C   0  0  0  0  0
    4.4990   -1.0680    0.2800 C   0  0  0  0  0
    5.3290    0.0170   -0.0080 C   0  0  0  0  0
    6.8000   -0.1450    0.0340 C   0  0  0  0  0
    4.7730    1.2550   -0.3370 C   0  0  0  0  0
    3.4060    1.4050   -0.3820 C   0  0  0  0  0
   -3.8030   -1.9350   -1.0360 H   0  0  0  0  0
    7.2330    1.7860   -0.4790 H   0  0  0  0  0
    8.5830    0.8200   -0.2230 H   0  0  0  0  0
   -1.3600   -2.2130   -0.9700 H   0  0  0  0  0
    8.2830   -1.4060    0.3680 H   0  0  0  0  0
   -3.4580    1.7540    1.0840 H   0  0  0  0  0
   -1.0140    1.4950    1.1610 H   0  0  0  0  0
    0.6800    1.4380   -0.3890 H   0  0  0  0  0
    2.4900   -1.7580    0.4650 H   0  0  0  0  0
    4.9310   -2.0250    0.5350 H   0  0  0  0  0
    5.4160    2.0930   -0.5600 H   0  0  0  0  0
    2.9760    2.3620   -0.6410 H   0  0  0  0  0
  1  2  1  0  0  0
  2  8  1  0  0  0
  4  2  2  0  0  0
  4  6  1  0  0  0
  4 19  1  0  0  0
  5 20  1  0  0  0
  5 21  1  0  0  0
  6 10  2  0  0  0
  6 22  1  0  0  0
  7 23  1  0  0  0
  8  9  2  0  0  0
  8 24  1  0  0  0
  9 25  1  0  0  0
 10  9  1  0  0  0
 10  3  1  0  0  0
 11  3  2  0  0  0
 11 12  1  0  0  0
 11 26  1  0  0  0
 12 18  2  0  0  0
 12 13  1  0  0  0
 13 14  2  0  0  0
 13 27  1  0  0  0
 14 15  1  0  0  0
 14 28  1  0  0  0
 15 16  1  0  0  0
 16  5  1  0  0  0
 16  7  2  0  0  0
 17 15  2  0  0  0
 17 29  1  0  0  0
 18 17  1  0  0  0
 18 30  1  0  0  0
M  END
$$$$
