BRV
  CCTOOLS-0919241034

 20 20  0  0  0  0  0  0  0  0999 V2000
    2.4880   -1.1810    0.0210 C   0  0  0  0  0
   -2.4860   -1.1840    0.0240 C   0  0  0  0  0
   -0.0010    1.6430    0.0050 C   0  0  0  0  0
    1.2020    0.9510    0.0090 C   0  0  0  0  0
    1.2070   -0.4470    0.0180 C   0  0  0  0  0
    0.0010   -1.1470    0.0230 C   0  0  0  0  0
   -0.0010    3.0420   -0.0040 N   0  0  0  0  0
    0.0010   -3.0380    0.0350 BR  0  0  0  0  0
    2.8380    1.9010    0.0020 BR  0  0  0  0  0
   -2.8390    1.8990   -0.0000 BR  0  0  0  0  0
   -1.2070   -0.4480    0.0190 C   0  0  0  0  0
   -1.2030    0.9500    0.0050 C   0  0  0  0  0
   -3.0710   -1.5260   -1.1400 O   0  0  0  0  0
   -3.0120   -1.4800    1.0790 O   0  0  0  0  0
    3.0160   -1.4770    1.0740 O   0  0  0  0  0
    3.0680   -1.5290   -1.1440 O   0  0  0  0  0
    0.8390    3.5270   -0.0070 H   0  0  0  0  0
   -0.8410    3.5260   -0.0060 H   0  0  0  0  0
   -3.9080   -2.0070   -1.0860 H   0  0  0  0  0
    3.9060   -2.0090   -1.0920 H   0  0  0  0  0
  1  5  1  0  0  0
  1 15  2  0  0  0
  1 16  1  0  0  0
  2 11  1  0  0  0
  2 13  1  0  0  0
  2 14  2  0  0  0
  3  4  2  0  0  0
  3  7  1  0  0  0
  3 12  1  0  0  0
  4  5  1  0  0  0
  4  9  1  0  0  0
  5  6  2  0  0  0
  6  8  1  0  0  0
  6 11  1  0  0  0
  7 17  1  0  0  0
  7 18  1  0  0  0
 10 12  1  0  0  0
 11 12  2  0  0  0
 13 19  1  0  0  0
 16 20  1  0  0  0
M  END
$$$$
