BX3
  CCTOOLS-0919241035

 64 67  0  0  1  0  0  0  0  0999 V2000
   -3.9000    0.9880   -7.0050 N   0  0  0  0  0
   -2.8850    0.5030   -7.6610 C   0  0  0  0  0
   -2.9180    0.4480   -9.0380 N   0  0  0  0  0
   -1.6960    0.0110   -6.9290 C   0  0  0  0  0
   -0.6040   -0.5090   -7.6430 C   0  0  0  0  0
    0.4970   -0.9660   -6.9940 C   0  0  0  0  0
    0.5560   -0.9210   -5.5900 C   0  0  0  0  0
   -0.5390   -0.3960   -4.8580 C   0  0  0  0  0
   -1.6690    0.0700   -5.5470 C   0  0  0  0  0
    1.6850   -1.3870   -4.8960 C   0  0  0  0  0
    1.7130   -1.3310   -3.5360 C   0  0  0  0  0
   -0.4760   -0.3590   -3.4540 C   0  0  0  0  0
    0.6360   -0.8150   -2.8170 C   0  0  0  0  0
    0.7020   -0.7680   -1.3120 C   0  0  0  0  0
    1.3100    0.5640   -0.8700 C   0  0  0  0  0
    1.3770    0.6110    0.6340 C   0  0  0  0  0
    0.7030    1.6020    1.3230 C   0  0  0  0  0
    0.7620    1.6470    2.7030 C   0  0  0  0  0
    1.4990    0.6980    3.3960 C   0  0  0  0  0
    2.1780   -0.2910    2.7010 C   0  0  0  0  0
    2.1110   -0.3360    1.3220 C   0  0  0  0  0
    2.7000    0.6950   -1.4390 C   0  0  0  0  0
    3.6470    0.8150   -0.6980 O   0  0  0  0  0
    2.8850    0.6790   -2.7680 O   0  0  0  0  0
    1.5590    0.7400    4.7530 O   0  0  0  0  0
    0.4340    0.0040    5.2390 C   0  0  0  0  0
   -0.7780    0.9310    5.3370 C   0  0  0  0  0
   -1.6380   -0.5360    7.0860 N   0  0  0  0  0
   -0.4360   -1.3800    7.1260 C   0  0  0  0  0
    0.7570   -0.5630    6.6230 C   0  0  0  0  0
   -2.4160   -0.3750    8.2020 C   0  0  0  0  0
   -3.5340    0.2700    8.1230 N   0  0  0  0  0
   -1.9700   -0.9510    9.5210 C   0  0  0  0  0
   -1.9930    0.1260    5.8240 C   0  0  0  0  0
   -4.6790    1.3100   -7.4840 H   0  0  0  0  0
   -3.6970    0.7700   -9.5180 H   0  0  0  0  0
   -2.1620    0.0870   -9.5270 H   0  0  0  0  0
   -0.6420   -0.5470   -8.7220 H   0  0  0  0  0
    1.3290   -1.3640   -7.5570 H   0  0  0  0  0
   -2.5100    0.4720   -5.0020 H   0  0  0  0  0
    2.5280   -1.7890   -5.4390 H   0  0  0  0  0
    2.5820   -1.6900   -3.0070 H   0  0  0  0  0
   -1.3050    0.0330   -2.8840 H   0  0  0  0  0
    1.3220   -1.5880   -0.9500 H   0  0  0  0  0
   -0.3020   -0.8630   -0.9010 H   0  0  0  0  0
    0.6900    1.3840   -1.2330 H   0  0  0  0  0
    0.1300    2.3410    0.7830 H   0  0  0  0  0
    0.2360    2.4220    3.2410 H   0  0  0  0  0
    2.7520   -1.0320    3.2390 H   0  0  0  0  0
    2.6350   -1.1100    0.7810 H   0  0  0  0  0
    3.7770    0.7640   -3.1330 H   0  0  0  0  0
    0.2120   -0.8130    4.5540 H   0  0  0  0  0
   -0.5660    1.7360    6.0410 H   0  0  0  0  0
   -0.9930    1.3540    4.3550 H   0  0  0  0  0
   -0.2520   -1.7040    8.1510 H   0  0  0  0  0
   -0.5790   -2.2510    6.4860 H   0  0  0  0  0
    0.9550    0.2550    7.3150 H   0  0  0  0  0
    1.6350   -1.2050    6.5580 H   0  0  0  0  0
   -3.7880    0.7000    7.2920 H   0  0  0  0  0
   -2.7120   -0.7240   10.2860 H   0  0  0  0  0
   -1.8630   -2.0320    9.4280 H   0  0  0  0  0
   -1.0120   -0.5140    9.8030 H   0  0  0  0  0
   -2.2610   -0.6190    5.0750 H   0  0  0  0  0
   -2.8340    0.7990    5.9900 H   0  0  0  0  0
  1  2  2  0  0  0
  1 35  1  0  0  0
  2  3  1  0  0  0
  2  4  1  0  0  0
  3 36  1  0  0  0
  3 37  1  0  0  0
  4  5  2  0  0  0
  4  9  1  0  0  0
  5  6  1  0  0  0
  5 38  1  0  0  0
  6  7  2  0  0  0
  6 39  1  0  0  0
  7  8  1  0  0  0
  7 10  1  0  0  0
  8  9  2  0  0  0
  8 12  1  0  0  0
  9 40  1  0  0  0
 10 11  2  0  0  0
 10 41  1  0  0  0
 11 13  1  0  0  0
 11 42  1  0  0  0
 12 13  2  0  0  0
 12 43  1  0  0  0
 13 14  1  0  0  0
 14 15  1  0  0  0
 14 44  1  0  0  0
 14 45  1  0  0  0
 15 16  1  0  0  0
 15 22  1  0  0  0
 15 46  1  0  0  0
 16 17  2  0  0  0
 16 21  1  0  0  0
 17 18  1  0  0  0
 17 47  1  0  0  0
 18 19  2  0  0  0
 18 48  1  0  0  0
 19 20  1  0  0  0
 19 25  1  0  0  0
 20 21  2  0  0  0
 20 49  1  0  0  0
 21 50  1  0  0  0
 22 23  2  0  0  0
 22 24  1  0  0  0
 24 51  1  0  0  0
 25 26  1  0  0  0
 26 27  1  0  0  0
 26 30  1  0  0  0
 26 52  1  0  0  0
 27 34  1  0  0  0
 27 53  1  0  0  0
 27 54  1  0  0  0
 28 29  1  0  0  0
 28 31  1  0  0  0
 28 34  1  0  0  0
 29 30  1  0  0  0
 29 55  1  0  0  0
 29 56  1  0  0  0
 30 57  1  0  0  0
 30 58  1  0  0  0
 31 32  2  0  0  0
 31 33  1  0  0  0
 32 59  1  0  0  0
 33 60  1  0  0  0
 33 61  1  0  0  0
 33 62  1  0  0  0
 34 63  1  0  0  0
 34 64  1  0  0  0
M  END
$$$$
