BZY
  CCTOOLS-0919241036

 56 57  0  0  1  0  0  0  0  0999 V2000
   -4.9250   -0.2180    0.9260 C   0  0  0  0  0
   -3.5600    0.0210    1.5180 C   0  0  0  0  0
   -2.6130    0.3410    0.4470 N   0  0  0  0  0
   -1.3230    0.5950    0.7420 C   0  0  0  0  0
   -0.3480    0.9240   -0.3590 C   0  0  0  0  0
    0.9790    1.1560    0.2160 N   0  0  0  0  0
    1.8700    1.9280   -0.4370 C   0  0  0  0  0
    3.2360    2.1670    0.1550 C   0  0  0  0  0
    4.1320    0.9600   -0.1270 C   0  0  0  0  0
    5.4770    1.1470    0.5790 C   0  0  0  0  0
    3.8280    3.3680   -0.4490 N   0  0  0  0  0
    1.5740    2.4300   -1.5000 O   0  0  0  0  0
   -0.2790   -0.2440   -1.3450 C   0  0  0  0  0
   -0.9460    0.5580    1.8940 O   0  0  0  0  0
   -5.8040    0.8400    0.7710 C   0  0  0  0  0
   -7.0530    0.6280    0.2250 C   0  0  0  0  0
   -7.4290   -0.6550   -0.1720 C   0  0  0  0  0
   -8.7680   -0.8890   -0.7600 C   0  0  0  0  0
   -9.1370   -2.1570   -1.1510 N   0  0  0  0  0
   -9.5970    0.1050   -0.9070 N   0  0  0  0  0
   -6.5390   -1.7170   -0.0140 C   0  0  0  0  0
   -5.2930   -1.4930    0.5340 C   0  0  0  0  0
    6.3600   -0.0420    0.3020 C   0  0  0  0  0
    6.3260   -1.1380    1.1440 C   0  0  0  0  0
    7.1340   -2.2300    0.8910 C   0  0  0  0  0
    7.9800   -2.2250   -0.2080 C   0  0  0  0  0
    8.7760   -3.2980   -0.4590 O   0  0  0  0  0
    8.0120   -1.1240   -1.0520 C   0  0  0  0  0
    7.1980   -0.0380   -0.7980 C   0  0  0  0  0
   -3.6090    0.8530    2.2200 H   0  0  0  0  0
   -3.2290   -0.8760    2.0400 H   0  0  0  0  0
   -2.9150    0.3710   -0.4750 H   0  0  0  0  0
   -0.6800    1.8210   -0.8820 H   0  0  0  0  0
    1.2160    0.7540    1.0660 H   0  0  0  0  0
    3.1450    2.3090    1.2320 H   0  0  0  0  0
    3.6500    0.0550    0.2440 H   0  0  0  0  0
    4.2950    0.8710   -1.2010 H   0  0  0  0  0
    5.9580    2.0520    0.2090 H   0  0  0  0  0
    5.3140    1.2360    1.6530 H   0  0  0  0  0
    4.7160    3.5870   -0.0230 H   0  0  0  0  0
    3.9220    3.2620   -1.4480 H   0  0  0  0  0
   -1.2670   -0.4170   -1.7730 H   0  0  0  0  0
    0.4250   -0.0060   -2.1420 H   0  0  0  0  0
    0.0520   -1.1420   -0.8230 H   0  0  0  0  0
   -5.5120    1.8320    1.0790 H   0  0  0  0  0
   -7.7390    1.4540    0.1050 H   0  0  0  0  0
   -8.5200   -2.8970   -1.0420 H   0  0  0  0  0
  -10.0140   -2.3100   -1.5360 H   0  0  0  0  0
  -10.4740   -0.0480   -1.2920 H   0  0  0  0  0
   -6.8250   -2.7130   -0.3190 H   0  0  0  0  0
   -4.6010   -2.3130    0.6520 H   0  0  0  0  0
    5.6670   -1.1410    2.0000 H   0  0  0  0  0
    7.1080   -3.0860    1.5500 H   0  0  0  0  0
    8.3680   -3.9670   -1.0240 H   0  0  0  0  0
    8.6700   -1.1180   -1.9080 H   0  0  0  0  0
    7.2190    0.8180   -1.4560 H   0  0  0  0  0
  1 22  1  0  0  0
  2  3  1  0  0  0
  2  1  1  0  0  0
  2 30  1  0  0  0
  2 31  1  0  0  0
  3  4  1  0  0  0
  3 32  1  0  0  0
  4 14  2  0  0  0
  4  5  1  0  0  0
  5  6  1  0  0  0
  5 33  1  0  0  0
  6  7  1  0  0  0
  6 34  1  0  0  0
  7 12  2  0  0  0
  7  8  1  0  0  0
  8  9  1  0  0  0
  8 11  1  0  0  0
  8 35  1  0  0  0
  9 36  1  0  0  0
  9 37  1  0  0  0
 10  9  1  0  0  0
 10 23  1  0  0  0
 10 38  1  0  0  0
 10 39  1  0  0  0
 11 40  1  0  0  0
 11 41  1  0  0  0
 13  5  1  0  0  0
 13 42  1  0  0  0
 13 43  1  0  0  0
 13 44  1  0  0  0
 15  1  2  0  0  0
 15 16  1  0  0  0
 15 45  1  0  0  0
 16 17  2  0  0  0
 16 46  1  0  0  0
 17 21  1  0  0  0
 17 18  1  0  0  0
 18 19  1  0  0  0
 19 47  1  0  0  0
 19 48  1  0  0  0
 20 18  2  0  0  0
 20 49  1  0  0  0
 21 50  1  0  0  0
 22 21  2  0  0  0
 22 51  1  0  0  0
 23 29  2  0  0  0
 23 24  1  0  0  0
 24 25  2  0  0  0
 24 52  1  0  0  0
 25 26  1  0  0  0
 25 53  1  0  0  0
 26 27  1  0  0  0
 27 54  1  0  0  0
 28 26  2  0  0  0
 28 55  1  0  0  0
 29 28  1  0  0  0
 29 56  1  0  0  0
M  END
$$$$
