CCR
  CCTOOLS-0919241037

 81 83  0  0  1  0  0  0  0  0999 V2000
   -2.2330    3.2140    0.2670 S   0  0  0  0  0
   -2.6940    3.9410    1.3980 O   0  0  0  0  0
   -2.3220    3.7060   -1.0630 O   0  0  0  0  0
   -3.0880    1.6730    0.2850 C   0  0  0  0  0
   -3.6840    1.2280    1.4500 C   0  0  0  0  0
   -4.3550    0.0200    1.4670 C   0  0  0  0  0
   -4.4300   -0.7470    0.3130 C   0  0  0  0  0
   -3.8300   -0.2980   -0.8550 C   0  0  0  0  0
   -3.1660    0.9130   -0.8680 C   0  0  0  0  0
   -3.6020    2.0610    2.7030 C   0  0  0  0  0
   -5.0040   -0.4650    2.7370 C   0  0  0  0  0
   -2.5200    1.4040   -2.1380 C   0  0  0  0  0
   -5.0880   -1.9350    0.3270 O   0  0  0  0  0
   -5.1250   -2.6710   -0.8970 C   0  0  0  0  0
   -0.6320    2.8890    0.5400 N   0  0  0  0  0
    0.1480    2.1590   -0.4620 C   0  0  0  0  0
    0.2540    0.7110   -0.0580 C   0  0  0  0  0
   -0.2710    0.3270    0.9660 O   0  0  0  0  0
    1.5490    2.7650   -0.5590 C   0  0  0  0  0
    1.4540    4.1660   -1.1060 C   0  0  0  0  0
    0.3710    4.6610   -1.3130 O   0  0  0  0  0
    2.5710    4.8640   -1.3630 O   0  0  0  0  0
    0.9320   -0.1570   -0.8350 N   0  0  0  0  0
    1.0350   -1.5650   -0.4420 C   0  0  0  0  0
   -0.1840   -2.3110   -0.9220 C   0  0  0  0  0
   -0.8430   -1.8690   -1.8390 O   0  0  0  0  0
    2.2880   -2.1790   -1.0690 C   0  0  0  0  0
    3.5140   -1.5200   -0.4900 C   0  0  0  0  0
    4.1060   -2.0440    0.6450 C   0  0  0  0  0
    4.0450   -0.3980   -1.1000 C   0  0  0  0  0
    5.2310   -1.4480    1.1760 C   0  0  0  0  0
    5.1710    0.2060   -0.5780 C   0  0  0  0  0
    5.7720   -0.3170    0.5660 C   0  0  0  0  0
    6.9800    0.3270    1.1320 C   0  0  0  0  0
    7.5390   -0.1630    2.2010 N   0  0  0  0  0
    7.5120    1.4450    0.5270 N   0  0  0  0  0
   -0.5410   -3.4680   -0.3310 N   0  0  0  0  0
   -1.6770   -4.2490   -0.8400 C   0  0  0  0  0
   -1.2100   -5.6830   -1.1070 C   0  0  0  0  0
   -0.5750   -6.2530    0.1640 C   0  0  0  0  0
    0.6440   -5.4110    0.5480 C   0  0  0  0  0
    0.2020   -3.9770    0.8300 C   0  0  0  0  0
   -3.8870   -0.8930   -1.7550 H   0  0  0  0  0
   -4.4530    2.7420    2.7430 H   0  0  0  0  0
   -3.6190    1.4080    3.5760 H   0  0  0  0  0
   -2.6770    2.6360    2.6970 H   0  0  0  0  0
   -6.0310   -0.1020    2.7820 H   0  0  0  0  0
   -5.0030   -1.5540    2.7530 H   0  0  0  0  0
   -4.4490   -0.0880    3.5960 H   0  0  0  0  0
   -1.4500    1.1950   -2.1060 H   0  0  0  0  0
   -2.9640    0.8940   -2.9930 H   0  0  0  0  0
   -2.6770    2.4780   -2.2340 H   0  0  0  0  0
   -5.6150   -2.0730   -1.6660 H   0  0  0  0  0
   -4.1070   -2.9040   -1.2120 H   0  0  0  0  0
   -5.6800   -3.5970   -0.7480 H   0  0  0  0  0
   -0.2110    3.1830    1.3630 H   0  0  0  0  0
   -0.3470    2.2300   -1.4310 H   0  0  0  0  0
    2.0020    2.7920    0.4320 H   0  0  0  0  0
    2.1640    2.1570   -1.2220 H   0  0  0  0  0
    2.4600    5.7580   -1.7130 H   0  0  0  0  0
    1.3510    0.1490   -1.6540 H   0  0  0  0  0
    1.1000   -1.6360    0.6440 H   0  0  0  0  0
    2.2670   -2.0240   -2.1480 H   0  0  0  0  0
    2.3150   -3.2480   -0.8560 H   0  0  0  0  0
    3.6860   -2.9200    1.1170 H   0  0  0  0  0
    3.5790    0.0060   -1.9860 H   0  0  0  0  0
    5.6930   -1.8570    2.0630 H   0  0  0  0  0
    5.5850    1.0820   -1.0550 H   0  0  0  0  0
    8.3300    0.2590    2.5710 H   0  0  0  0  0
    7.0950    1.8100   -0.2690 H   0  0  0  0  0
    8.3030    1.8670    0.8970 H   0  0  0  0  0
   -2.4760   -4.2570   -0.0990 H   0  0  0  0  0
   -2.0400   -3.8050   -1.7670 H   0  0  0  0  0
   -2.0640   -6.2970   -1.3930 H   0  0  0  0  0
   -0.4750   -5.6830   -1.9120 H   0  0  0  0  0
   -1.3020   -6.2300    0.9750 H   0  0  0  0  0
   -0.2640   -7.2820   -0.0160 H   0  0  0  0  0
    1.1100   -5.8320    1.4400 H   0  0  0  0  0
    1.3620   -5.4140   -0.2730 H   0  0  0  0  0
    1.0780   -3.3530    1.0050 H   0  0  0  0  0
   -0.4410   -3.9620    1.7100 H   0  0  0  0  0
  1  2  2  0  0  0
  1  3  2  0  0  0
  1  4  1  0  0  0
  4  5  2  0  0  0
  4  9  1  0  0  0
  5  6  1  0  0  0
  5 10  1  0  0  0
  6  7  2  0  0  0
  6 11  1  0  0  0
  7  8  1  0  0  0
  7 13  1  0  0  0
  8  9  2  0  0  0
  8 43  1  0  0  0
  9 12  1  0  0  0
 10 44  1  0  0  0
 10 45  1  0  0  0
 10 46  1  0  0  0
 11 47  1  0  0  0
 11 48  1  0  0  0
 11 49  1  0  0  0
 12 50  1  0  0  0
 12 51  1  0  0  0
 12 52  1  0  0  0
 13 14  1  0  0  0
 14 53  1  0  0  0
 14 54  1  0  0  0
 14 55  1  0  0  0
 15  1  1  0  0  0
 15 16  1  0  0  0
 15 56  1  0  0  0
 16 19  1  0  0  0
 16 17  1  0  0  0
 16 57  1  0  0  0
 17 18  2  0  0  0
 19 20  1  0  0  0
 19 58  1  0  0  0
 19 59  1  0  0  0
 20 21  2  0  0  0
 20 22  1  0  0  0
 22 60  1  0  0  0
 23 17  1  0  0  0
 23 61  1  0  0  0
 24 23  1  0  0  0
 24 25  1  0  0  0
 24 62  1  0  0  0
 25 26  2  0  0  0
 25 37  1  0  0  0
 27 24  1  0  0  0
 27 63  1  0  0  0
 27 64  1  0  0  0
 28 29  2  0  0  0
 28 30  1  0  0  0
 28 27  1  0  0  0
 29 31  1  0  0  0
 29 65  1  0  0  0
 30 66  1  0  0  0
 31 33  2  0  0  0
 31 67  1  0  0  0
 32 30  2  0  0  0
 32 33  1  0  0  0
 32 68  1  0  0  0
 33 34  1  0  0  0
 34 36  1  0  0  0
 34 35  2  0  0  0
 35 69  1  0  0  0
 36 70  1  0  0  0
 36 71  1  0  0  0
 37 38  1  0  0  0
 37 42  1  0  0  0
 38 39  1  0  0  0
 38 72  1  0  0  0
 38 73  1  0  0  0
 39 40  1  0  0  0
 39 74  1  0  0  0
 39 75  1  0  0  0
 40 41  1  0  0  0
 40 76  1  0  0  0
 40 77  1  0  0  0
 41 42  1  0  0  0
 41 78  1  0  0  0
 41 79  1  0  0  0
 42 80  1  0  0  0
 42 81  1  0  0  0
M  END
$$$$
