CR3
  CCTOOLS-0919241039

 46 49  0  0  0  0  0  0  0  0999 V2000
   -5.3410    0.2270   -0.0390 C   0  0  0  0  0
   -4.9670    1.4350    0.5630 C   0  0  0  0  0
   -3.6570    1.7000    0.8350 C   0  0  0  0  0
   -2.6710    0.7690    0.5170 C   0  0  0  0  0
   -3.0340   -0.4510   -0.0890 C   0  0  0  0  0
   -4.3750   -0.7210   -0.3620 C   0  0  0  0  0
   -6.7650   -0.0440   -0.3270 C   0  0  0  0  0
   -7.1230   -1.1930   -0.9000 N   0  0  0  0  0
   -7.6920    0.8600   -0.0140 N   0  3  0  0  0
   -1.3040    0.7610    0.6690 N   0  0  0  0  0
   -1.7910   -1.1950   -0.2920 C   0  0  0  0  0
   -0.7860   -0.4180    0.1830 C   0  0  0  0  0
    0.6470   -0.7810    0.1780 C   0  0  0  0  0
    1.0400   -2.0870    0.4780 C   0  0  0  0  0
    2.3780   -2.4230    0.4720 C   0  0  0  0  0
    3.3360   -1.4700    0.1710 C   0  0  0  0  0
    2.9590   -0.1700   -0.1290 C   0  0  0  0  0
    3.9050    0.7610   -0.4250 O   0  0  0  0  0
    1.6140    0.1800   -0.1330 C   0  0  0  0  0
    1.2410    1.4540   -0.4270 O   0  5  0  0  0
    6.1580    0.8860   -1.3320 C   0  0  0  0  0
    5.1550    0.0710   -0.4980 C   0  0  0  0  0
    5.7650   -0.0690    0.9120 C   0  0  0  0  0
    7.2860    0.1110    0.6870 C   0  0  0  0  0
    7.3430    1.2130   -0.4000 C   0  0  0  0  0
   -5.7230    2.1640    0.8140 H   0  0  0  0  0
   -3.3830    2.6360    1.2990 H   0  0  0  0  0
   -4.6600   -1.6560   -0.8210 H   0  0  0  0  0
   -8.0570   -1.3710   -1.0890 H   0  0  0  0  0
   -6.4480   -1.8510   -1.1280 H   0  0  0  0  0
   -7.4320    1.6970    0.4030 H   0  0  0  0  0
   -8.6260    0.6840   -0.2060 H   0  0  0  0  0
   -0.7820    1.4790    1.0610 H   0  0  0  0  0
   -1.6930   -2.1750   -0.7340 H   0  0  0  0  0
    0.2970   -2.8340    0.7140 H   0  0  0  0  0
    2.6790   -3.4330    0.7050 H   0  0  0  0  0
    4.3810   -1.7410    0.1690 H   0  0  0  0  0
    6.5030    0.2970   -2.1820 H   0  0  0  0  0
    5.6920    1.8080   -1.6810 H   0  0  0  0  0
    5.0120   -0.9130   -0.9430 H   0  0  0  0  0
    5.3820    0.7090    1.5720 H   0  0  0  0  0
    5.5540   -1.0570    1.3220 H   0  0  0  0  0
    7.7350   -0.8130    0.3240 H   0  0  0  0  0
    7.7750    0.4460    1.6020 H   0  0  0  0  0
    8.2850    1.1610   -0.9470 H   0  0  0  0  0
    7.2150    2.1980    0.0490 H   0  0  0  0  0
  1  2  2  0  0  0
  1  6  1  0  0  0
  1  7  1  0  0  0
  2  3  1  0  0  0
  2 26  1  0  0  0
  3  4  2  0  0  0
  3 27  1  0  0  0
  4  5  1  0  0  0
  4 10  1  0  0  0
  5  6  2  0  0  0
  5 11  1  0  0  0
  6 28  1  0  0  0
  7  8  1  0  0  0
  7  9  2  0  0  0
  8 29  1  0  0  0
  8 30  1  0  0  0
  9 31  1  0  0  0
  9 32  1  0  0  0
 10 12  1  0  0  0
 10 33  1  0  0  0
 11 12  2  0  0  0
 11 34  1  0  0  0
 12 13  1  0  0  0
 13 14  2  0  0  0
 13 19  1  0  0  0
 14 15  1  0  0  0
 14 35  1  0  0  0
 15 16  2  0  0  0
 15 36  1  0  0  0
 16 17  1  0  0  0
 16 37  1  0  0  0
 17 18  1  0  0  0
 17 19  2  0  0  0
 18 22  1  0  0  0
 19 20  1  0  0  0
 21 22  1  0  0  0
 21 25  1  0  0  0
 21 38  1  0  0  0
 21 39  1  0  0  0
 22 23  1  0  0  0
 22 40  1  0  0  0
 23 24  1  0  0  0
 23 41  1  0  0  0
 23 42  1  0  0  0
 24 25  1  0  0  0
 24 43  1  0  0  0
 24 44  1  0  0  0
 25 45  1  0  0  0
 25 46  1  0  0  0
M  CHG  1   9   1
M  CHG  1  20  -1
M  END
$$$$
