CR9
  CCTOOLS-1004241123

 51 54  0  0  1  0  0  0  0  0999 V2000
   -5.3450   -0.5240    0.1840 C   0  0  0  0  0
   -5.5080    0.6310   -0.5940 C   0  0  0  0  0
   -6.7400    0.9890   -1.0190 F   0  0  0  0  0
   -4.4160    1.4030   -0.9290 C   0  0  0  0  0
   -3.1480    1.0390   -0.4950 C   0  0  0  0  0
   -2.9730   -0.1190    0.2880 C   0  0  0  0  0
   -4.0790   -0.8980    0.6250 C   0  0  0  0  0
   -6.5210   -1.3450    0.5380 C   0  0  0  0  0
   -7.5370   -0.8010    1.2080 N   0  0  0  0  0
   -6.5650   -2.6310    0.1880 N   0  3  0  0  0
   -1.8920    1.5860   -0.6580 N   0  0  0  0  0
   -1.6470   -0.2250    0.5550 N   0  0  0  0  0
   -1.0070    0.7790    0.0060 C   0  0  0  0  0
    0.4510    1.0020    0.0860 C   0  0  0  0  0
    0.9550    2.2930    0.2560 C   0  0  0  0  0
    2.3160    2.4980    0.3310 C   0  0  0  0  0
    3.1900    1.4290    0.2390 C   0  0  0  0  0
    2.7050    0.1420    0.0700 C   0  0  0  0  0
    1.3340   -0.0780   -0.0130 C   0  0  0  0  0
    0.8550   -1.3390   -0.1790 O   0  5  0  0  0
    3.5690   -0.9040   -0.0200 O   0  0  0  0  0
    5.8420   -1.3580   -0.7030 C   0  0  0  0  0
    7.2520   -0.7650   -0.7480 C   0  0  0  0  0
    7.7190   -0.4520    0.6750 C   0  0  0  0  0
    6.7620    0.5550    1.3160 C   0  0  0  0  0
    5.3530   -0.0370    1.3610 C   0  0  0  0  0
    4.8850   -0.3510   -0.0620 C   0  0  0  0  0
    5.3750   -1.6710   -2.1250 C   0  0  0  0  0
   -4.5470    2.2910   -1.5290 H   0  0  0  0  0
   -3.9550   -1.7870    1.2250 H   0  0  0  0  0
   -7.5050    0.1350    1.4620 H   0  0  0  0  0
   -8.3090   -1.3400    1.4400 H   0  0  0  0  0
   -7.2910   -3.1940    0.5000 H   0  0  0  0  0
   -5.8720   -3.0040   -0.3780 H   0  0  0  0  0
   -1.6760    2.3930   -1.1510 H   0  0  0  0  0
    0.2780    3.1320    0.3290 H   0  0  0  0  0
    2.7030    3.4980    0.4630 H   0  0  0  0  0
    4.2550    1.5980    0.3000 H   0  0  0  0  0
    5.8520   -2.2750   -0.1140 H   0  0  0  0  0
    7.9330   -1.4830   -1.2040 H   0  0  0  0  0
    7.2410    0.1520   -1.3370 H   0  0  0  0  0
    7.7290   -1.3690    1.2640 H   0  0  0  0  0
    8.7230   -0.0290    0.6430 H   0  0  0  0  0
    7.0950    0.7790    2.3300 H   0  0  0  0  0
    6.7520    1.4720    0.7270 H   0  0  0  0  0
    5.3630   -0.9540    1.9500 H   0  0  0  0  0
    4.6710    0.6800    1.8180 H   0  0  0  0  0
    4.8750    0.5660   -0.6510 H   0  0  0  0  0
    6.0560   -2.3890   -2.5820 H   0  0  0  0  0
    4.3700   -2.0940   -2.0930 H   0  0  0  0  0
    5.3640   -0.7540   -2.7150 H   0  0  0  0  0
  1  2  2  0  0  0
  1  7  1  0  0  0
  1  8  1  0  0  0
  2  3  1  0  0  0
  2  4  1  0  0  0
  4  5  2  0  0  0
  4 29  1  0  0  0
  5  6  1  0  0  0
  5 11  1  0  0  0
  6  7  2  0  0  0
  6 12  1  0  0  0
  7 30  1  0  0  0
  8  9  1  0  0  0
  8 10  2  0  0  0
  9 31  1  0  0  0
  9 32  1  0  0  0
 10 33  1  0  0  0
 10 34  1  0  0  0
 11 13  1  0  0  0
 11 35  1  0  0  0
 12 13  2  0  0  0
 13 14  1  0  0  0
 14 15  2  0  0  0
 14 19  1  0  0  0
 15 16  1  0  0  0
 15 36  1  0  0  0
 16 17  2  0  0  0
 16 37  1  0  0  0
 17 18  1  0  0  0
 17 38  1  0  0  0
 18 19  2  0  0  0
 18 21  1  0  0  0
 19 20  1  0  0  0
 21 27  1  0  0  0
 22 23  1  0  0  0
 22 27  1  0  0  0
 22 28  1  0  0  0
 22 39  1  0  0  0
 23 24  1  0  0  0
 23 40  1  0  0  0
 23 41  1  0  0  0
 24 25  1  0  0  0
 24 42  1  0  0  0
 24 43  1  0  0  0
 25 26  1  0  0  0
 25 44  1  0  0  0
 25 45  1  0  0  0
 26 27  1  0  0  0
 26 46  1  0  0  0
 26 47  1  0  0  0
 27 48  1  0  0  0
 28 49  1  0  0  0
 28 50  1  0  0  0
 28 51  1  0  0  0
M  CHG  1  10   1
M  CHG  1  20  -1
M  END
$$$$
