CTA
  CCTOOLS-1004241124

 98101  0  0  1  0  0  0  0  0999 V2000
    2.1270   -2.5230    0.5850 C   0  0  0  0  0
    2.2480   -1.8300   -0.7120 C   0  0  0  0  0
    1.8250   -2.4420   -1.8120 C   0  0  0  0  0
    1.9000   -1.8200   -3.1790 C   0  0  0  0  0
    0.6340   -1.1190   -3.4690 N   0  0  0  0  0
    0.0390   -0.4180   -2.4750 C   0  0  0  0  0
   -1.4500   -0.1630   -2.5420 C   0  0  0  0  0
   -1.8980    0.2210   -1.1800 N   0  0  0  0  0
   -3.0700    0.9110   -1.1110 C   0  0  0  0  0
   -3.4890    1.5790    0.1530 C   0  0  0  0  0
   -2.5490    1.8320    1.2940 C   0  0  0  0  0
   -2.2780    0.5830    2.0310 N   0  0  0  0  0
   -2.0930    0.7180    3.3760 C   0  0  0  0  0
   -1.8760   -0.5000    4.2330 C   0  0  0  0  0
   -2.4130   -0.2290    5.6600 C   0  0  0  0  0
   -1.1490   -0.3060    6.5610 C   0  0  0  0  0
   -0.0400    0.1130    5.5430 C   0  0  0  0  0
   -0.4270   -0.7580    4.3930 N   0  0  0  0  0
    0.3440   -1.5920    3.6840 C   0  0  0  0  0
    1.7910   -1.8080    4.0430 C   0  0  0  0  0
    2.4700   -2.6540    2.9630 C   0  0  0  0  0
    2.5490   -1.8700    1.7100 N   0  0  0  0  0
    1.6740   -3.6460    0.6460 O   0  0  0  0  0
    3.0890   -0.8710   -3.2980 C   0  0  0  0  0
    3.1190   -0.2750   -4.6820 C   0  0  0  0  0
    2.4460    0.9030   -4.9410 C   0  0  0  0  0
    2.4720    1.4510   -6.2090 C   0  0  0  0  0
    3.1740    0.8160   -7.2230 C   0  0  0  0  0
    3.8490   -0.3660   -6.9610 C   0  0  0  0  0
    3.8240   -0.9070   -5.6900 C   0  0  0  0  0
    3.2010    1.3530   -8.4720 O   0  0  0  0  0
    0.6600   -0.0030   -1.5230 O   0  0  0  0  0
   -2.1660   -1.4400   -2.9850 C   0  0  0  0  0
   -3.6500   -1.1870   -3.0510 C   0  0  0  0  0
   -4.2230   -0.7340   -4.2250 C   0  0  0  0  0
   -5.5840   -0.5020   -4.2860 C   0  0  0  0  0
   -6.3730   -0.7220   -3.1730 C   0  0  0  0  0
   -5.8010   -1.1750   -1.9990 C   0  0  0  0  0
   -4.4400   -1.4120   -1.9390 C   0  0  0  0  0
   -3.7790    1.0200   -2.1010 O   0  0  0  0  0
   -4.6510    1.9270    0.2620 O   0  0  0  0  0
   -1.2460    2.4530    0.7920 C   0  0  0  0  0
   -0.3240    2.7350    1.9800 C   0  0  0  0  0
    0.9800    3.3560    1.4770 C   0  0  0  0  0
    1.8630    3.6250    2.6150 N   0  0  0  0  0
    3.1000    4.1870    2.4070 C   0  0  0  0  0
    3.9290    4.4400    3.4740 N   0  0  0  0  0
    3.4880    4.4800    1.1970 N   0  0  0  0  0
   -2.1110    1.8230    3.8840 O   0  0  0  0  0
   -0.1320   -2.1900    2.7410 O   0  0  0  0  0
    1.8760   -2.5130    5.3260 N   0  0  0  0  0
    2.9310   -2.3070    6.1390 C   0  0  0  0  0
    3.8100   -1.5390    5.8100 O   0  0  0  0  0
    2.6770   -0.8420   -0.7390 H   0  0  0  0  0
    1.4080   -3.4410   -1.7170 H   0  0  0  0  0
    2.0230   -2.6250   -3.9180 H   0  0  0  0  0
    0.2420   -1.1550   -4.3630 H   0  0  0  0  0
   -1.6520    0.6420   -3.2450 H   0  0  0  0  0
   -1.3880   -0.0270   -0.3910 H   0  0  0  0  0
   -3.0270    2.5440    1.9830 H   0  0  0  0  0
   -2.2320   -0.2800    1.5950 H   0  0  0  0  0
   -2.3690   -1.3660    3.8090 H   0  0  0  0  0
   -2.8650    0.7580    5.7200 H   0  0  0  0  0
   -3.1280   -0.9990    5.9460 H   0  0  0  0  0
   -1.2100    0.4040    7.3830 H   0  0  0  0  0
   -0.9850   -1.3190    6.9210 H   0  0  0  0  0
   -0.1250    1.1660    5.2870 H   0  0  0  0  0
    0.9480   -0.1290    5.9190 H   0  0  0  0  0
    2.2980   -0.8470    4.1200 H   0  0  0  0  0
    3.4790   -2.9150    3.2930 H   0  0  0  0  0
    1.9000   -3.5690    2.8030 H   0  0  0  0  0
    2.8790   -0.9560    1.6820 H   0  0  0  0  0
    2.9920   -0.0730   -2.5620 H   0  0  0  0  0
    4.0120   -1.4210   -3.1190 H   0  0  0  0  0
    1.8990    1.3970   -4.1520 H   0  0  0  0  0
    1.9450    2.3720   -6.4110 H   0  0  0  0  0
    4.3960   -0.8630   -7.7490 H   0  0  0  0  0
    4.3500   -1.8280   -5.4850 H   0  0  0  0  0
    3.9650    1.9450   -8.5050 H   0  0  0  0  0
   -1.8040   -1.7370   -3.9690 H   0  0  0  0  0
   -1.9650   -2.2360   -2.2680 H   0  0  0  0  0
   -3.6060   -0.5620   -5.0950 H   0  0  0  0  0
   -6.0310   -0.1480   -5.2030 H   0  0  0  0  0
   -7.4360   -0.5400   -3.2200 H   0  0  0  0  0
   -6.4170   -1.3470   -1.1290 H   0  0  0  0  0
   -3.9930   -1.7660   -1.0220 H   0  0  0  0  0
   -1.4640    3.3860    0.2730 H   0  0  0  0  0
   -0.7550    1.7620    0.1070 H   0  0  0  0  0
   -0.1050    1.8010    2.5000 H   0  0  0  0  0
   -0.8150    3.4250    2.6650 H   0  0  0  0  0
    0.7610    4.2890    0.9580 H   0  0  0  0  0
    1.4710    2.6650    0.7920 H   0  0  0  0  0
    1.5740    3.4070    3.5150 H   0  0  0  0  0
    4.8020    4.8370    3.3280 H   0  0  0  0  0
    3.6380    4.2260    4.3750 H   0  0  0  0  0
    2.9030    4.3020    0.4440 H   0  0  0  0  0
    1.1730   -3.1270    5.5890 H   0  0  0  0  0
    2.9940   -2.8260    7.0840 H   0  0  0  0  0
  1  2  1  0  0  0
  1 22  1  0  0  0
  1 23  2  0  0  0
  2  3  2  0  0  0
  2 54  1  0  0  0
  3  4  1  0  0  0
  3 55  1  0  0  0
  4  5  1  0  0  0
  4 24  1  0  0  0
  4 56  1  0  0  0
  5  6  1  0  0  0
  5 57  1  0  0  0
  6  7  1  0  0  0
  6 32  2  0  0  0
  7  8  1  0  0  0
  7 33  1  0  0  0
  7 58  1  0  0  0
  8  9  1  0  0  0
  8 59  1  0  0  0
  9 10  1  0  0  0
  9 40  2  0  0  0
 10 11  1  0  0  0
 10 41  2  0  0  0
 11 12  1  0  0  0
 11 42  1  0  0  0
 11 60  1  0  0  0
 12 13  1  0  0  0
 12 61  1  0  0  0
 13 14  1  0  0  0
 13 49  2  0  0  0
 14 15  1  0  0  0
 14 18  1  0  0  0
 14 62  1  0  0  0
 15 16  1  0  0  0
 15 63  1  0  0  0
 15 64  1  0  0  0
 16 17  1  0  0  0
 16 65  1  0  0  0
 16 66  1  0  0  0
 17 18  1  0  0  0
 17 67  1  0  0  0
 17 68  1  0  0  0
 18 19  1  0  0  0
 19 20  1  0  0  0
 19 50  2  0  0  0
 20 21  1  0  0  0
 20 51  1  0  0  0
 20 69  1  0  0  0
 21 22  1  0  0  0
 21 70  1  0  0  0
 21 71  1  0  0  0
 22 72  1  0  0  0
 24 25  1  0  0  0
 24 73  1  0  0  0
 24 74  1  0  0  0
 25 26  2  0  0  0
 25 30  1  0  0  0
 26 27  1  0  0  0
 26 75  1  0  0  0
 27 28  2  0  0  0
 27 76  1  0  0  0
 28 29  1  0  0  0
 28 31  1  0  0  0
 29 30  2  0  0  0
 29 77  1  0  0  0
 30 78  1  0  0  0
 31 79  1  0  0  0
 33 34  1  0  0  0
 33 80  1  0  0  0
 33 81  1  0  0  0
 34 35  2  0  0  0
 34 39  1  0  0  0
 35 36  1  0  0  0
 35 82  1  0  0  0
 36 37  2  0  0  0
 36 83  1  0  0  0
 37 38  1  0  0  0
 37 84  1  0  0  0
 38 39  2  0  0  0
 38 85  1  0  0  0
 39 86  1  0  0  0
 42 43  1  0  0  0
 42 87  1  0  0  0
 42 88  1  0  0  0
 43 44  1  0  0  0
 43 89  1  0  0  0
 43 90  1  0  0  0
 44 45  1  0  0  0
 44 91  1  0  0  0
 44 92  1  0  0  0
 45 46  1  0  0  0
 45 93  1  0  0  0
 46 47  1  0  0  0
 46 48  2  0  0  0
 47 94  1  0  0  0
 47 95  1  0  0  0
 48 96  1  0  0  0
 51 52  1  0  0  0
 51 97  1  0  0  0
 52 53  2  0  0  0
 52 98  1  0  0  0
M  END
$$$$
