DJY
  CCTOOLS-0919241044

 65 68  0  0  0  0  0  0  0  0999 V2000
   -5.0970    4.4000   -0.0380 C   0  0  0  0  0
   -3.2510    2.4450    0.1730 C   0  0  0  0  0
   -2.6170    0.1040    0.1830 C   0  0  0  0  0
   -3.9440   -0.2570   -0.0370 C   0  0  0  0  0
   -6.3280    0.3490   -0.3850 C   0  0  0  0  0
   -6.6620   -0.9320   -0.4860 C   0  0  0  0  0
   -1.5790   -0.9370    0.3040 C   0  0  0  0  0
   -0.9200   -3.2170    0.2070 C   0  0  0  0  0
   -1.1710   -4.4590    0.7820 C   0  0  0  0  0
    1.0500   -5.1650    0.2060 C   0  0  0  0  0
    1.2990   -3.9180   -0.3710 C   0  0  0  0  0
    0.3180   -2.9520   -0.3680 C   0  0  0  0  0
    2.1020   -6.2050    0.2050 C   0  0  0  0  0
    3.3290   -5.9430   -0.3650 N   0  0  0  0  0
   -0.8610    1.8530    0.5210 C   0  0  0  0  0
   -0.4860    2.4900    1.7090 C   0  0  0  0  0
    1.7630    2.5360    0.8730 C   0  0  0  0  0
    0.1250    1.5820   -0.4480 C   0  0  0  0  0
   -0.2520    0.9100   -1.7110 C   0  0  0  0  0
    3.1870    2.9030    1.0550 C   0  0  0  0  0
    4.0840    2.6220    0.0900 N   0  0  0  0  0
    5.4920    2.9850    0.2700 C   0  0  0  0  0
    7.7670    2.9540   -1.0210 C   0  0  0  0  0
   -5.5240    3.0410   -0.1560 O   0  0  0  0  0
   -4.5690    2.0830   -0.0450 C   0  0  0  0  0
   -2.2690    1.4650    0.2880 C   0  0  0  0  0
   -4.9210    0.7290   -0.1520 C   0  0  0  0  0
   -0.4210   -0.6210    0.4960 O   0  0  0  0  0
   -1.9140   -2.2380    0.2030 N   0  0  0  0  0
   -0.1940   -5.4290    0.7830 C   0  0  0  0  0
    1.8680   -7.3690    0.7430 N   0  0  0  0  0
    0.8410    2.8320    1.8820 C   0  0  0  0  0
    1.3850    1.9240   -0.2380 N   0  0  0  0  0
   -1.4080    0.5940   -1.9090 O   0  0  0  0  0
    0.6860    0.6480   -2.6410 O   0  0  0  0  0
    3.5460    3.4570    2.0760 O   0  0  0  0  0
    6.2910    2.5580   -0.9630 C   0  0  0  0  0
    7.3760    1.4970   -0.7690 C   0  0  0  0  0
   -4.3680    4.6210   -0.8180 H   0  0  0  0  0
   -5.9560    5.0620   -0.1460 H   0  0  0  0  0
   -4.6400    4.5530    0.9400 H   0  0  0  0  0
   -2.9840    3.4880    0.2500 H   0  0  0  0  0
   -4.2150   -1.2990   -0.1190 H   0  0  0  0  0
   -7.0870    1.1120   -0.4730 H   0  0  0  0  0
   -7.6910   -1.2100   -0.6560 H   0  0  0  0  0
   -5.9040   -1.6960   -0.3970 H   0  0  0  0  0
   -2.1340   -4.6620    1.2280 H   0  0  0  0  0
    2.2600   -3.7120   -0.8170 H   0  0  0  0  0
    0.5100   -1.9870   -0.8140 H   0  0  0  0  0
    3.5030   -5.0770   -0.7650 H   0  0  0  0  0
   -1.2170    2.7080    2.4730 H   0  0  0  0  0
    3.7980    2.1800   -0.7250 H   0  0  0  0  0
    5.5750    4.0640    0.4010 H   0  0  0  0  0
    5.8870    2.4800    1.1510 H   0  0  0  0  0
    8.1840    3.2030   -1.9970 H   0  0  0  0  0
    8.1700    3.5200   -0.1800 H   0  0  0  0  0
   -2.8470   -2.4940    0.1260 H   0  0  0  0  0
   -0.3890   -6.3930    1.2290 H   0  0  0  0  0
    2.5570   -8.0510    0.7420 H   0  0  0  0  0
    1.1620    3.3320    2.7830 H   0  0  0  0  0
    0.3920    0.2070   -3.4500 H   0  0  0  0  0
    5.7360    2.5450   -1.9010 H   0  0  0  0  0
    7.5350    0.7860   -1.5800 H   0  0  0  0  0
    7.5210    1.1030    0.2370 H   0  0  0  0  0
    4.0190   -6.6250   -0.3660 H   0  0  0  0  0
  1 24  1  0  0  0
  1 39  1  0  0  0
  1 40  1  0  0  0
  1 41  1  0  0  0
  2 25  2  0  0  0
  2 26  1  0  0  0
  2 42  1  0  0  0
  3  4  1  0  0  0
  3  7  1  0  0  0
  4 43  1  0  0  0
  5  6  2  0  0  0
  5 44  1  0  0  0
  6 45  1  0  0  0
  6 46  1  0  0  0
  7 28  2  0  0  0
  7 29  1  0  0  0
  8  9  1  0  0  0
  9 30  2  0  0  0
  9 47  1  0  0  0
 10 30  1  0  0  0
 10 13  1  0  0  0
 11 10  2  0  0  0
 11 48  1  0  0  0
 12  8  2  0  0  0
 12 11  1  0  0  0
 12 49  1  0  0  0
 13 31  2  0  0  0
 13 14  1  0  0  0
 14 50  1  0  0  0
 14 65  1  0  0  0
 15 16  1  0  0  0
 15 26  1  0  0  0
 16 51  1  0  0  0
 17 32  1  0  0  0
 18 15  2  0  0  0
 19 18  1  0  0  0
 19 35  1  0  0  0
 20 36  2  0  0  0
 20 17  1  0  0  0
 21 20  1  0  0  0
 21 52  1  0  0  0
 22 21  1  0  0  0
 22 53  1  0  0  0
 22 54  1  0  0  0
 23 38  1  0  0  0
 23 37  1  0  0  0
 23 55  1  0  0  0
 23 56  1  0  0  0
 24 25  1  0  0  0
 25 27  1  0  0  0
 26  3  2  0  0  0
 27  5  1  0  0  0
 27  4  2  0  0  0
 29  8  1  0  0  0
 29 57  1  0  0  0
 30 58  1  0  0  0
 31 59  1  0  0  0
 32 16  2  0  0  0
 32 60  1  0  0  0
 33 17  2  0  0  0
 33 18  1  0  0  0
 34 19  2  0  0  0
 35 61  1  0  0  0
 37 22  1  0  0  0
 37 62  1  0  0  0
 38 37  1  0  0  0
 38 63  1  0  0  0
 38 64  1  0  0  0
M  END
$$$$
