DX9
  CCTOOLS-0919241028

 61 64  0  0  1  0  0  0  0  0999 V2000
    3.5330    0.8990    0.0390 C   0  0  0  0  0
    2.5850    1.5150    0.7970 C   0  0  0  0  0
    1.9160    0.8270    1.8070 C   0  0  0  0  0
    2.1900   -0.4810    2.0650 C   0  0  0  0  0
    3.1610   -1.1530    1.3040 C   0  0  0  0  0
    3.4670   -2.5040    1.5460 C   0  0  0  0  0
    4.4100   -3.1310    0.7980 C   0  0  0  0  0
    5.0920   -2.4480   -0.2240 C   0  0  0  0  0
    4.8140   -1.1180   -0.4870 C   0  0  0  0  0
    3.8430   -0.4520    0.2760 C   0  0  0  0  0
    6.1160   -3.1560   -1.0240 C   0  0  0  0  0
    6.7520   -2.5280   -1.9720 N   0  0  0  0  0
    6.3980   -4.4810   -0.7660 N   0  0  0  0  0
    2.2550    2.9630    0.5400 C   0  0  0  0  0
    1.0270    4.5110   -0.9590 C   0  0  0  0  0
    1.5170    5.3780   -0.2760 O   0  0  0  0  0
    0.2800    4.8370   -2.0250 O   0  0  0  0  0
    1.2560    3.0610   -0.6140 C   0  0  0  0  0
   -5.9800   -1.8430   -0.1550 N   0  0  0  0  0
   -5.6800   -0.4600    0.2560 C   0  0  0  0  0
   -4.1500   -0.3130    0.0680 C   0  0  0  0  0
   -3.6470   -1.7160    0.5000 C   0  0  0  0  0
   -4.7630   -2.6540   -0.0060 C   0  0  0  0  0
   -7.1940   -2.2990   -0.5980 C   0  0  0  0  0
   -8.1980   -1.4880   -0.6810 N   0  0  0  0  0
   -7.3590   -3.7460   -0.9870 C   0  0  0  0  0
   -0.5510    1.3560   -0.9150 C   0  0  0  0  0
   -1.7480    0.7760   -0.5400 C   0  0  0  0  0
   -0.7440    2.9280    0.8840 C   0  0  0  0  0
   -1.9410    2.3510    1.2630 C   0  0  0  0  0
   -2.4460    1.2730    0.5510 C   0  0  0  0  0
   -3.6240    0.7050    0.9220 O   0  0  0  0  0
   -0.0500    2.4310   -0.2040 C   0  0  0  0  0
    4.0410    1.4430   -0.7440 H   0  0  0  0  0
    1.1680    1.3400    2.3940 H   0  0  0  0  0
    1.6630   -1.0010    2.8520 H   0  0  0  0  0
    2.9520   -3.0420    2.3280 H   0  0  0  0  0
    4.6400   -4.1690    0.9900 H   0  0  0  0  0
    5.3410   -0.5970   -1.2730 H   0  0  0  0  0
   -6.2100    0.2490   -0.3800 H   0  0  0  0  0
    7.4230   -2.9920   -2.4960 H   0  0  0  0  0
    5.9250   -4.9480   -0.0600 H   0  0  0  0  0
    7.0690   -4.9450   -1.2900 H   0  0  0  0  0
    1.8180    3.4010    1.4370 H   0  0  0  0  0
    3.1660    3.5020    0.2790 H   0  0  0  0  0
    0.1620    5.7800   -2.2060 H   0  0  0  0  0
    1.6530    2.5390   -1.4850 H   0  0  0  0  0
   -5.9520   -0.3080    1.3010 H   0  0  0  0  0
   -2.6980   -1.9510    0.0170 H   0  0  0  0  0
   -4.9350   -3.4510    0.7180 H   0  0  0  0  0
   -4.4810   -3.0800   -0.9690 H   0  0  0  0  0
   -9.0580   -1.8110   -0.9950 H   0  0  0  0  0
   -3.5550   -1.7760    1.5840 H   0  0  0  0  0
   -6.4130   -4.2690   -0.8510 H   0  0  0  0  0
   -8.1230   -4.2060   -0.3600 H   0  0  0  0  0
   -7.6620   -3.8080   -2.0330 H   0  0  0  0  0
   -0.0050    0.9670   -1.7610 H   0  0  0  0  0
   -2.1390   -0.0630   -1.0960 H   0  0  0  0  0
   -0.3500    3.7670    1.4380 H   0  0  0  0  0
   -2.4830    2.7400    2.1130 H   0  0  0  0  0
   -3.9020   -0.1130   -0.9750 H   0  0  0  0  0
  1  2  2  0  0  0
  1 10  1  0  0  0
  1 34  1  0  0  0
  2  3  1  0  0  0
  2 14  1  0  0  0
  3  4  2  0  0  0
  3 35  1  0  0  0
  4  5  1  0  0  0
  4 36  1  0  0  0
  5  6  2  0  0  0
  5 10  1  0  0  0
  6  7  1  0  0  0
  6 37  1  0  0  0
  7  8  2  0  0  0
  7 38  1  0  0  0
  8  9  1  0  0  0
  8 11  1  0  0  0
  9 10  2  0  0  0
  9 39  1  0  0  0
 11 12  2  0  0  0
 11 13  1  0  0  0
 12 41  1  0  0  0
 13 42  1  0  0  0
 13 43  1  0  0  0
 14 18  1  0  0  0
 14 44  1  0  0  0
 14 45  1  0  0  0
 15 16  2  0  0  0
 15 17  1  0  0  0
 15 18  1  0  0  0
 17 46  1  0  0  0
 18 33  1  0  0  0
 18 47  1  0  0  0
 19 20  1  0  0  0
 19 23  1  0  0  0
 19 24  1  0  0  0
 20 40  1  0  0  0
 20 21  1  0  0  0
 20 48  1  0  0  0
 21 22  1  0  0  0
 21 32  1  0  0  0
 21 61  1  0  0  0
 22 23  1  0  0  0
 22 49  1  0  0  0
 22 53  1  0  0  0
 23 50  1  0  0  0
 23 51  1  0  0  0
 24 25  2  0  0  0
 24 26  1  0  0  0
 25 52  1  0  0  0
 26 54  1  0  0  0
 26 55  1  0  0  0
 26 56  1  0  0  0
 27 28  2  0  0  0
 27 33  1  0  0  0
 27 57  1  0  0  0
 28 31  1  0  0  0
 28 58  1  0  0  0
 29 30  1  0  0  0
 29 33  2  0  0  0
 29 59  1  0  0  0
 30 31  2  0  0  0
 30 60  1  0  0  0
 31 32  1  0  0  0
M  END
$$$$
