E64
  CCTOOLS-1004241128

 55 54  0  0  1  0  0  0  0  0999 V2000
    6.0020   -2.4300   -0.0700 C   0  0  0  0  0
    6.1550   -3.7370    0.1910 O   0  0  0  0  0
    6.8580   -1.8310   -0.6780 O   0  0  0  0  0
    4.7630   -1.7080    0.3940 C   0  0  0  0  0
    4.8380   -0.2400   -0.0300 C   0  0  0  0  0
    5.9230    0.3960    0.6490 O   0  0  0  0  0
    3.5480    0.4520    0.3250 C   0  0  0  0  0
    3.5430    1.3380    1.1540 O   0  0  0  0  0
    2.3990    0.0870   -0.2770 N   0  0  0  0  0
    1.1440    0.7600    0.0680 C   0  0  0  0  0
    1.0040    2.0360   -0.7650 C   0  0  0  0  0
    2.1110    3.0200   -0.3800 C   0  0  0  0  0
    2.0470    4.2430   -1.2980 C   0  0  0  0  0
    1.9180    3.4610    1.0720 C   0  0  0  0  0
   -0.0150   -0.1590   -0.2220 C   0  0  0  0  0
    0.1880   -1.2670   -0.6720 O   0  0  0  0  0
   -1.2760    0.2500    0.0200 N   0  0  0  0  0
   -2.4020   -0.6430   -0.2610 C   0  0  0  0  0
   -3.7130    0.0600    0.0990 C   0  0  0  0  0
   -4.8890   -0.8730   -0.1950 C   0  0  0  0  0
   -6.2000   -0.1700    0.1660 C   0  0  0  0  0
   -7.3260   -1.0630   -0.1160 N   0  0  0  0  0
   -8.6130   -0.6450    0.1310 C   0  0  0  0  0
   -8.8360    0.5780    0.6280 N   0  0  0  0  0
   -9.6430   -1.4620   -0.1260 N   0  3  0  0  0
    0.0000    0.0000    0.0000 H   0  0  0  0  0
    4.6920   -1.7700    1.4800 H   0  0  0  0  0
    3.8840   -2.1710   -0.0550 H   0  0  0  0  0
    4.9990   -0.1800   -1.1060 H   0  0  0  0  0
    5.7420    0.3210    1.5960 H   0  0  0  0  0
    2.4030   -0.6220   -0.9400 H   0  0  0  0  0
    1.1490    1.0160    1.1270 H   0  0  0  0  0
    0.0320    2.4890   -0.5740 H   0  0  0  0  0
    1.0890    1.7900   -1.8240 H   0  0  0  0  0
    3.0810    2.5350   -0.4870 H   0  0  0  0  0
    2.8350    4.9440   -1.0240 H   0  0  0  0  0
    2.1840    3.9280   -2.3320 H   0  0  0  0  0
    1.0760    4.7270   -1.1910 H   0  0  0  0  0
    0.9480    3.9460    1.1790 H   0  0  0  0  0
    1.9640    2.5900    1.7250 H   0  0  0  0  0
    2.7070    4.1620    1.3460 H   0  0  0  0  0
   -1.4370    1.1360    0.3800 H   0  0  0  0  0
   -2.4070   -0.8990   -1.3210 H   0  0  0  0  0
   -2.3020   -1.5520    0.3320 H   0  0  0  0  0
   -3.7080    0.3160    1.1580 H   0  0  0  0  0
   -3.8130    0.9690   -0.4940 H   0  0  0  0  0
   -4.8940   -1.1290   -1.2540 H   0  0  0  0  0
   -4.7890   -1.7820    0.3980 H   0  0  0  0  0
   -6.1950    0.0870    1.2250 H   0  0  0  0  0
   -6.3000    0.7390   -0.4280 H   0  0  0  0  0
   -7.1650   -1.9490   -0.4760 H   0  0  0  0  0
   -8.0900    1.1690    0.8140 H   0  0  0  0  0
   -9.7440    0.8730    0.8020 H   0  0  0  0  0
  -10.5500   -1.1670    0.0470 H   0  0  0  0  0
   -9.4810   -2.3480   -0.4870 H   0  0  0  0  0
  1  2  2  0  0  0
  1  3  1  0  0  0
  1  4  1  0  0  0
  3 26  1  0  0  0
  4  5  1  0  0  0
  4 27  1  0  0  0
  4 28  1  0  0  0
  5  6  1  0  0  0
  5  7  1  0  0  0
  5 29  1  0  0  0
  6 30  1  0  0  0
  7  8  2  0  0  0
  7  9  1  0  0  0
  9 10  1  0  0  0
  9 31  1  0  0  0
 10 11  1  0  0  0
 10 15  1  0  0  0
 10 32  1  0  0  0
 11 12  1  0  0  0
 11 33  1  0  0  0
 11 34  1  0  0  0
 12 13  1  0  0  0
 12 14  1  0  0  0
 12 35  1  0  0  0
 13 36  1  0  0  0
 13 37  1  0  0  0
 13 38  1  0  0  0
 14 39  1  0  0  0
 14 40  1  0  0  0
 14 41  1  0  0  0
 15 16  2  0  0  0
 15 17  1  0  0  0
 17 18  1  0  0  0
 17 42  1  0  0  0
 18 19  1  0  0  0
 18 43  1  0  0  0
 18 44  1  0  0  0
 19 20  1  0  0  0
 19 45  1  0  0  0
 19 46  1  0  0  0
 20 21  1  0  0  0
 20 47  1  0  0  0
 20 48  1  0  0  0
 21 22  1  0  0  0
 21 49  1  0  0  0
 21 50  1  0  0  0
 22 23  1  0  0  0
 22 51  1  0  0  0
 23 24  1  0  0  0
 23 25  2  0  0  0
 24 52  1  0  0  0
 24 53  1  0  0  0
 25 54  1  0  0  0
 25 55  1  0  0  0
M  CHG  1  25   1
M  END
$$$$
