ESI
  CCTOOLS-0919241032

 21 22  0  0  0  0  0  0  0  0999 V2000
    3.4720   -1.4980    0.0040 C   0  0  0  0  0
    2.5040   -0.3900    0.0160 C   0  0  0  0  0
    3.1510   -2.6700    0.5560 N   0  0  0  0  0
    4.6700   -1.3320   -0.5600 N   0  3  0  0  0
    2.8240    1.3660    0.0520 S   0  0  0  0  0
    1.1430    1.9340    0.0480 C   0  0  0  0  0
    0.3910    0.7360    0.0180 C   0  0  0  0  0
    1.1470   -0.4500   -0.0040 C   0  0  0  0  0
    0.5460    3.1760    0.0650 C   0  0  0  0  0
   -0.8320    3.2690    0.0540 C   0  0  0  0  0
   -1.5960    2.1090    0.0250 C   0  0  0  0  0
   -1.0210    0.8780    0.0080 C   0  0  0  0  0
   -2.2330   -0.8300   -0.0360 I   0  0  0  0  0
    3.7890   -3.4010    0.5480 H   0  0  0  0  0
    2.2800   -2.7910    0.9660 H   0  0  0  0  0
    4.9030   -0.4800   -0.9610 H   0  0  0  0  0
    5.3090   -2.0620   -0.5640 H   0  0  0  0  0
    0.6490   -1.4080   -0.0320 H   0  0  0  0  0
    1.1510    4.0700    0.0880 H   0  0  0  0  0
   -1.3120    4.2360    0.0680 H   0  0  0  0  0
   -2.6730    2.1880    0.0170 H   0  0  0  0  0
  1  2  1  0  0  0
  1  3  1  0  0  0
  1  4  2  0  0  0
  2  5  1  0  0  0
  2  8  2  0  0  0
  3 14  1  0  0  0
  3 15  1  0  0  0
  4 16  1  0  0  0
  4 17  1  0  0  0
  5  6  1  0  0  0
  6  7  2  0  0  0
  6  9  1  0  0  0
  7  8  1  0  0  0
  7 12  1  0  0  0
  8 18  1  0  0  0
  9 10  2  0  0  0
  9 19  1  0  0  0
 10 11  1  0  0  0
 10 20  1  0  0  0
 11 12  2  0  0  0
 11 21  1  0  0  0
 12 13  1  0  0  0
M  CHG  1   4   1
M  END
$$$$
