FD1
  CCTOOLS-0919241035

 64 67  0  0  1  0  0  0  0  0999 V2000
   -0.8310   -0.0920    3.1520 C   0  0  0  0  0
   -0.0370   -1.0450    3.7570 C   0  0  0  0  0
   -0.9570    1.1640    3.7150 C   0  0  0  0  0
   -0.2950    1.4720    4.8900 C   0  0  0  0  0
    0.4960    0.5260    5.5070 C   0  0  0  0  0
    0.6280   -0.7430    4.9450 C   0  0  0  0  0
    1.4750   -1.7630    5.6030 C   0  0  0  0  0
    2.1360   -1.4590    6.7730 N   0  0  0  0  0
    1.5970   -2.9470    5.0750 N   0  0  0  0  0
   -1.5560   -0.4200    1.8720 C   0  0  0  0  0
   -0.6640   -0.0760    0.6780 C   0  0  0  0  0
   -1.3160   -0.5580   -0.5910 C   0  0  0  0  0
   -0.8230   -1.4720   -1.2170 O   0  0  0  0  0
   -2.4480    0.0260   -1.0310 N   0  0  0  0  0
   -2.9970   -0.3050   -2.3530 C   0  0  0  0  0
   -4.4640   -0.7290   -2.1810 C   0  0  0  0  0
   -4.6160    0.5760   -0.0540 C   0  0  0  0  0
   -3.1540    1.0110   -0.2000 C   0  0  0  0  0
   -5.2250    0.3750   -1.4440 C   0  0  0  0  0
   -2.2110   -1.4400   -2.9570 C   0  0  0  0  0
   -0.9920   -1.2130   -3.4720 O   0  0  0  0  0
   -2.6780   -2.5540   -2.9790 O   0  0  0  0  0
   -0.4770    1.3750    0.6110 N   0  0  0  0  0
    1.0320    2.0040    0.3500 S   0  0  0  0  0
    0.8420    3.4000    0.1670 O   0  0  0  0  0
    1.8720    1.4100    1.3310 O   0  0  0  0  0
    1.5980    1.3900   -1.2000 C   0  0  0  0  0
    1.3240    2.1070   -2.3640 C   0  0  0  0  0
    1.7470    1.6600   -3.5780 C   0  0  0  0  0
    2.7500   -0.2690   -2.4800 C   0  0  0  0  0
    2.4720    0.4590   -3.6630 C   0  0  0  0  0
    2.3020    0.2260   -1.2430 C   0  0  0  0  0
    2.9250   -0.0330   -4.8980 C   0  0  0  0  0
    3.6250   -1.2000   -4.9420 C   0  0  0  0  0
    3.8990   -1.9160   -3.7790 C   0  0  0  0  0
    3.4750   -1.4700   -2.5650 C   0  0  0  0  0
    0.0610   -2.0270    3.3170 H   0  0  0  0  0
   -1.5760    1.9080    3.2350 H   0  0  0  0  0
   -0.3980    2.4560    5.3240 H   0  0  0  0  0
    1.0120    0.7670    6.4250 H   0  0  0  0  0
    2.6910   -2.1280    7.2040 H   0  0  0  0  0
    2.0490   -0.5760    7.1640 H   0  0  0  0  0
    1.1320   -3.1610    4.2510 H   0  0  0  0  0
   -1.7950   -1.4830    1.8530 H   0  0  0  0  0
   -2.4770    0.1600    1.8180 H   0  0  0  0  0
    0.3040   -0.5620    0.7960 H   0  0  0  0  0
   -2.9420    0.5650   -3.0060 H   0  0  0  0  0
   -4.5130   -1.6520   -1.6030 H   0  0  0  0  0
   -4.9130   -0.8880   -3.1610 H   0  0  0  0  0
   -4.6640   -0.3580    0.5020 H   0  0  0  0  0
   -5.1730    1.3470    0.4780 H   0  0  0  0  0
   -2.6880    1.0600    0.7830 H   0  0  0  0  0
   -3.1090    1.9900   -0.6770 H   0  0  0  0  0
   -6.2720    0.0900   -1.3430 H   0  0  0  0  0
   -5.1540    1.3040   -2.0090 H   0  0  0  0  0
   -0.4880   -1.9410   -3.8600 H   0  0  0  0  0
   -1.2370    1.9670    0.7180 H   0  0  0  0  0
    0.7670    3.0300   -2.3010 H   0  0  0  0  0
    1.5270    2.2260   -4.4710 H   0  0  0  0  0
    2.5110   -0.3160   -0.3330 H   0  0  0  0  0
    2.7200    0.5110   -5.8080 H   0  0  0  0  0
    3.9720   -1.5760   -5.8930 H   0  0  0  0  0
    4.4550   -2.8400   -3.8420 H   0  0  0  0  0
    3.6940   -2.0360   -1.6720 H   0  0  0  0  0
  1  2  2  0  0  0
  1  3  1  0  0  0
  1 10  1  0  0  0
  2  6  1  0  0  0
  2 37  1  0  0  0
  3  4  2  0  0  0
  3 38  1  0  0  0
  4  5  1  0  0  0
  4 39  1  0  0  0
  5  6  2  0  0  0
  5 40  1  0  0  0
  6  7  1  0  0  0
  7  8  1  0  0  0
  7  9  2  0  0  0
  8 41  1  0  0  0
  8 42  1  0  0  0
  9 43  1  0  0  0
 10 11  1  0  0  0
 10 44  1  0  0  0
 10 45  1  0  0  0
 11 12  1  0  0  0
 11 23  1  0  0  0
 11 46  1  0  0  0
 12 13  2  0  0  0
 12 14  1  0  0  0
 14 15  1  0  0  0
 14 18  1  0  0  0
 15 16  1  0  0  0
 15 20  1  0  0  0
 15 47  1  0  0  0
 16 19  1  0  0  0
 16 48  1  0  0  0
 16 49  1  0  0  0
 17 18  1  0  0  0
 17 19  1  0  0  0
 17 50  1  0  0  0
 17 51  1  0  0  0
 18 52  1  0  0  0
 18 53  1  0  0  0
 19 54  1  0  0  0
 19 55  1  0  0  0
 20 21  1  0  0  0
 20 22  2  0  0  0
 21 56  1  0  0  0
 23 24  1  0  0  0
 23 57  1  0  0  0
 24 25  2  0  0  0
 24 26  2  0  0  0
 24 27  1  0  0  0
 27 28  2  0  0  0
 27 32  1  0  0  0
 28 29  1  0  0  0
 28 58  1  0  0  0
 29 31  2  0  0  0
 29 59  1  0  0  0
 30 31  1  0  0  0
 30 32  2  0  0  0
 30 36  1  0  0  0
 31 33  1  0  0  0
 32 60  1  0  0  0
 33 34  2  0  0  0
 33 61  1  0  0  0
 34 35  1  0  0  0
 34 62  1  0  0  0
 35 36  2  0  0  0
 35 63  1  0  0  0
 36 64  1  0  0  0
M  END
$$$$
