FD2
  CCTOOLS-0919241035

 67 70  0  0  1  0  0  0  0  0999 V2000
    1.0420    0.9730   -3.3940 C   0  0  0  0  0
    1.7440   -0.2130   -3.4300 C   0  0  0  0  0
    0.2030    1.3160   -4.4400 C   0  0  0  0  0
    0.0600    0.4700   -5.5240 C   0  0  0  0  0
    0.7530   -0.7220   -5.5690 C   0  0  0  0  0
    1.5990   -1.0730   -4.5180 C   0  0  0  0  0
    2.3450   -2.3520   -4.5590 C   0  0  0  0  0
    2.2040   -3.1970   -5.6380 N   0  0  0  0  0
    3.1350   -2.6770   -3.5760 N   0  0  0  0  0
    1.1920    1.9010   -2.2160 C   0  0  0  0  0
    0.1460    1.5530   -1.1550 C   0  0  0  0  0
    0.3810    2.3900    0.0750 C   0  0  0  0  0
   -0.2760    3.3930    0.2600 O   0  0  0  0  0
    1.3200    2.0260    0.9690 N   0  0  0  0  0
    2.1450    0.8300    0.7440 C   0  0  0  0  0
    2.0440   -0.0760    1.9740 C   0  0  0  0  0
    1.4460    1.8860    3.4020 C   0  0  0  0  0
    1.5400    2.8160    2.1880 C   0  0  0  0  0
    2.4220    0.7210    3.2240 C   0  0  0  0  0
    2.3570   -0.1770    4.4320 C   0  0  0  0  0
    2.0400   -1.3360    4.3060 O   0  0  0  0  0
    2.6510    0.3100    5.6480 O   0  0  0  0  0
    2.5890   -0.5550    6.8120 C   0  0  0  0  0
   -1.1920    1.8230   -1.6830 N   0  0  0  0  0
   -2.2980    0.5970   -1.8030 S   0  0  0  0  0
   -3.5220    1.2160   -2.1750 O   0  0  0  0  0
   -1.6480   -0.4390   -2.5250 O   0  0  0  0  0
   -2.5580   -0.0390   -0.1810 C   0  0  0  0  0
   -3.5590    0.5080    0.6180 C   0  0  0  0  0
   -3.7860    0.0390    1.8760 C   0  0  0  0  0
   -1.9820   -1.5680    1.5650 C   0  0  0  0  0
   -3.0000   -1.0110    2.3790 C   0  0  0  0  0
   -1.7810   -1.0610    0.2690 C   0  0  0  0  0
   -3.2050   -1.5220    3.6710 C   0  0  0  0  0
   -2.4240   -2.5410    4.1240 C   0  0  0  0  0
   -1.4230   -3.0880    3.3240 C   0  0  0  0  0
   -1.1960   -2.6190    2.0670 C   0  0  0  0  0
    2.3990   -0.4790   -2.6130 H   0  0  0  0  0
   -0.3410    2.2480   -4.4090 H   0  0  0  0  0
   -0.5950    0.7430   -6.3380 H   0  0  0  0  0
    0.6390   -1.3830   -6.4160 H   0  0  0  0  0
    2.6920   -4.0350   -5.6650 H   0  0  0  0  0
    1.6150   -2.9550   -6.3700 H   0  0  0  0  0
    3.6240   -3.5140   -3.6030 H   0  0  0  0  0
    1.0480    2.9310   -2.5440 H   0  0  0  0  0
    2.1910    1.7910   -1.7920 H   0  0  0  0  0
    0.2290    0.4970   -0.8970 H   0  0  0  0  0
    3.1830    1.1260    0.5920 H   0  0  0  0  0
    1.7820    0.2970   -0.1340 H   0  0  0  0  0
    2.7250   -0.9190    1.8610 H   0  0  0  0  0
    1.0220   -0.4440    2.0720 H   0  0  0  0  0
    0.4300    1.5000    3.4870 H   0  0  0  0  0
    1.7020    2.4400    4.3050 H   0  0  0  0  0
    2.5290    3.2730    2.1540 H   0  0  0  0  0
    0.7780    3.5920    2.2630 H   0  0  0  0  0
    3.4350    1.1090    3.1140 H   0  0  0  0  0
    2.8580    0.0120    7.7020 H   0  0  0  0  0
    1.5760   -0.9440    6.9220 H   0  0  0  0  0
    3.2840   -1.3850    6.6850 H   0  0  0  0  0
   -1.4310    2.7210   -1.9610 H   0  0  0  0  0
   -4.1640    1.3160    0.2350 H   0  0  0  0  0
   -4.5650    0.4740    2.4850 H   0  0  0  0  0
   -1.0120   -1.4790   -0.3630 H   0  0  0  0  0
   -3.9770   -1.1070    4.3030 H   0  0  0  0  0
   -2.5830   -2.9310    5.1190 H   0  0  0  0  0
   -0.8180   -3.8960    3.7080 H   0  0  0  0  0
   -0.4160   -3.0530    1.4580 H   0  0  0  0  0
  1  2  2  0  0  0
  1  3  1  0  0  0
  1 10  1  0  0  0
  2  6  1  0  0  0
  2 38  1  0  0  0
  3  4  2  0  0  0
  3 39  1  0  0  0
  4  5  1  0  0  0
  4 40  1  0  0  0
  5  6  2  0  0  0
  5 41  1  0  0  0
  6  7  1  0  0  0
  7  8  1  0  0  0
  7  9  2  0  0  0
  8 42  1  0  0  0
  8 43  1  0  0  0
  9 44  1  0  0  0
 10 11  1  0  0  0
 10 45  1  0  0  0
 10 46  1  0  0  0
 11 12  1  0  0  0
 11 24  1  0  0  0
 11 47  1  0  0  0
 12 13  2  0  0  0
 12 14  1  0  0  0
 14 15  1  0  0  0
 14 18  1  0  0  0
 15 16  1  0  0  0
 15 48  1  0  0  0
 15 49  1  0  0  0
 16 19  1  0  0  0
 16 50  1  0  0  0
 16 51  1  0  0  0
 17 18  1  0  0  0
 17 19  1  0  0  0
 17 52  1  0  0  0
 17 53  1  0  0  0
 18 54  1  0  0  0
 18 55  1  0  0  0
 19 20  1  0  0  0
 19 56  1  0  0  0
 20 21  2  0  0  0
 20 22  1  0  0  0
 22 23  1  0  0  0
 23 57  1  0  0  0
 23 58  1  0  0  0
 23 59  1  0  0  0
 24 25  1  0  0  0
 24 60  1  0  0  0
 25 26  2  0  0  0
 25 27  2  0  0  0
 25 28  1  0  0  0
 28 29  2  0  0  0
 28 33  1  0  0  0
 29 30  1  0  0  0
 29 61  1  0  0  0
 30 32  2  0  0  0
 30 62  1  0  0  0
 31 32  1  0  0  0
 31 33  2  0  0  0
 31 37  1  0  0  0
 32 34  1  0  0  0
 33 63  1  0  0  0
 34 35  2  0  0  0
 34 64  1  0  0  0
 35 36  1  0  0  0
 35 65  1  0  0  0
 36 37  2  0  0  0
 36 66  1  0  0  0
 37 67  1  0  0  0
M  END
$$$$
