FD3
  CCTOOLS-0919241035

 60 63  0  0  1  0  0  0  0  0999 V2000
   -0.6060    0.8140    2.9600 C   0  0  0  0  0
   -0.6340   -0.5020    3.3690 C   0  0  0  0  0
    0.2210    1.7210    3.5970 C   0  0  0  0  0
    1.0190    1.3160    4.6520 C   0  0  0  0  0
    0.9940    0.0030    5.0740 C   0  0  0  0  0
    0.1620   -0.9160    4.4360 C   0  0  0  0  0
    0.1310   -2.3270    4.8840 C   0  0  0  0  0
    0.9240   -2.7330    5.9350 N   0  0  0  0  0
   -0.6460   -3.1830    4.2860 N   0  0  0  0  0
   -1.4730    1.2650    1.8120 C   0  0  0  0  0
   -0.7060    1.0990    0.4990 C   0  0  0  0  0
   -1.5730    1.5490   -0.6480 C   0  0  0  0  0
   -1.5190    2.6980   -1.0350 O   0  0  0  0  0
   -2.4080    0.6760   -1.2440 N   0  0  0  0  0
   -2.5760   -0.6900   -0.7240 C   0  0  0  0  0
   -4.0750   -0.9820   -0.6060 C   0  0  0  0  0
   -4.6450    0.6580   -2.2110 C   0  0  0  0  0
   -3.1870    1.0600   -2.4320 C   0  0  0  0  0
   -4.7210   -0.7740   -1.9070 N   0  0  0  0  0
    0.5110    1.9120    0.5390 N   0  0  0  0  0
    1.9820    1.2150    0.2330 S   0  0  0  0  0
    2.9130    2.2880    0.1780 O   0  0  0  0  0
    2.0680    0.0960    1.1050 O   0  0  0  0  0
    1.9210    0.5490   -1.3960 C   0  0  0  0  0
    2.3040    1.3430   -2.4760 C   0  0  0  0  0
    2.2690    0.8590   -3.7480 C   0  0  0  0  0
    1.4520   -1.2650   -2.8800 C   0  0  0  0  0
    1.8410   -0.4580   -3.9790 C   0  0  0  0  0
    1.5070   -0.7330   -1.5810 C   0  0  0  0  0
    1.7910   -0.9930   -5.2770 C   0  0  0  0  0
    1.3720   -2.2750   -5.4630 C   0  0  0  0  0
    0.9890   -3.0680   -4.3830 C   0  0  0  0  0
    1.0240   -2.5840   -3.1110 C   0  0  0  0  0
   -1.2810   -1.2100    2.8710 H   0  0  0  0  0
    0.2440    2.7500    3.2700 H   0  0  0  0  0
    1.6630    2.0290    5.1450 H   0  0  0  0  0
    1.6180   -0.3120    5.8980 H   0  0  0  0  0
    0.9040   -3.6580    6.2290 H   0  0  0  0  0
    1.5070   -2.0970    6.3780 H   0  0  0  0  0
   -1.2050   -2.8970    3.5470 H   0  0  0  0  0
   -2.3790    0.6600    1.7830 H   0  0  0  0  0
   -1.7390    2.3130    1.9480 H   0  0  0  0  0
   -0.4390    0.0510    0.3630 H   0  0  0  0  0
   -2.1160   -1.4020   -1.4100 H   0  0  0  0  0
   -2.1070   -0.7690    0.2560 H   0  0  0  0  0
   -4.2200   -2.0150   -0.2890 H   0  0  0  0  0
   -4.5180   -0.3110    0.1300 H   0  0  0  0  0
   -5.2210    0.8700   -3.1120 H   0  0  0  0  0
   -5.0530    1.2290   -1.3770 H   0  0  0  0  0
   -3.1220    2.1380   -2.5830 H   0  0  0  0  0
   -2.7920    0.5430   -3.3070 H   0  0  0  0  0
   -5.6980   -0.9930   -1.7840 H   0  0  0  0  0
    0.4560    2.8590    0.7440 H   0  0  0  0  0
    2.6330    2.3570   -2.3020 H   0  0  0  0  0
    2.5680    1.4860   -4.5750 H   0  0  0  0  0
    1.2180   -1.3370   -0.7340 H   0  0  0  0  0
    2.0850   -0.3900   -6.1240 H   0  0  0  0  0
    1.3350   -2.6830   -6.4620 H   0  0  0  0  0
    0.6600   -4.0810   -4.5570 H   0  0  0  0  0
    0.7240   -3.2100   -2.2840 H   0  0  0  0  0
  1  2  2  0  0  0
  1  3  1  0  0  0
  1 10  1  0  0  0
  2  6  1  0  0  0
  2 34  1  0  0  0
  3  4  2  0  0  0
  3 35  1  0  0  0
  4  5  1  0  0  0
  4 36  1  0  0  0
  5  6  2  0  0  0
  5 37  1  0  0  0
  6  7  1  0  0  0
  7  8  1  0  0  0
  7  9  2  0  0  0
  8 38  1  0  0  0
  8 39  1  0  0  0
  9 40  1  0  0  0
 10 11  1  0  0  0
 10 41  1  0  0  0
 10 42  1  0  0  0
 11 12  1  0  0  0
 11 20  1  0  0  0
 11 43  1  0  0  0
 12 13  2  0  0  0
 12 14  1  0  0  0
 14 15  1  0  0  0
 14 18  1  0  0  0
 15 16  1  0  0  0
 15 44  1  0  0  0
 15 45  1  0  0  0
 16 19  1  0  0  0
 16 46  1  0  0  0
 16 47  1  0  0  0
 17 18  1  0  0  0
 17 19  1  0  0  0
 17 48  1  0  0  0
 17 49  1  0  0  0
 18 50  1  0  0  0
 18 51  1  0  0  0
 19 52  1  0  0  0
 20 21  1  0  0  0
 20 53  1  0  0  0
 21 22  2  0  0  0
 21 23  2  0  0  0
 21 24  1  0  0  0
 24 25  2  0  0  0
 24 29  1  0  0  0
 25 26  1  0  0  0
 25 54  1  0  0  0
 26 28  2  0  0  0
 26 55  1  0  0  0
 27 28  1  0  0  0
 27 29  2  0  0  0
 27 33  1  0  0  0
 28 30  1  0  0  0
 29 56  1  0  0  0
 30 31  2  0  0  0
 30 57  1  0  0  0
 31 32  1  0  0  0
 31 58  1  0  0  0
 32 33  2  0  0  0
 32 59  1  0  0  0
 33 60  1  0  0  0
M  END
$$$$
