FD4
  CCTOOLS-0919241035

 65 68  0  0  1  0  0  0  0  0999 V2000
    0.9170    1.0200   -3.1610 C   0  0  0  0  0
    1.5530   -0.1970   -3.2930 C   0  0  0  0  0
    0.0420    1.4560   -4.1400 C   0  0  0  0  0
   -0.2040    0.6730   -5.2530 C   0  0  0  0  0
    0.4200   -0.5490   -5.3930 C   0  0  0  0  0
    1.3030   -0.9940   -4.4100 C   0  0  0  0  0
    1.9770   -2.3040   -4.5540 C   0  0  0  0  0
    1.7320   -3.0870   -5.6610 N   0  0  0  0  0
    2.8010   -2.7180   -3.6330 N   0  0  0  0  0
    1.1810    1.8790   -1.9520 C   0  0  0  0  0
    0.1770    1.5310   -0.8500 C   0  0  0  0  0
    0.5200    2.2970    0.4010 C   0  0  0  0  0
   -0.0520    3.3350    0.6530 O   0  0  0  0  0
    1.4640    1.8270    1.2410 N   0  0  0  0  0
    1.7660    2.5310    2.4950 C   0  0  0  0  0
    1.6140    1.5440    3.6590 C   0  0  0  0  0
    2.0610   -0.3810    2.0800 C   0  0  0  0  0
    2.2090    0.6020    0.9180 C   0  0  0  0  0
    2.3590    0.3190    3.3370 N   0  0  0  0  0
   -1.1720    1.8920   -1.2890 N   0  0  0  0  0
   -2.3450    0.7280   -1.4020 S   0  0  0  0  0
   -3.5530    1.4230   -1.6760 O   0  0  0  0  0
   -1.7880   -0.3020   -2.2060 O   0  0  0  0  0
   -2.5480    0.0280    0.2010 C   0  0  0  0  0
   -3.4760    0.5840    1.0800 C   0  0  0  0  0
   -3.6580    0.0680    2.3260 C   0  0  0  0  0
   -1.9580   -1.6090    1.8410 C   0  0  0  0  0
   -2.9010   -1.0430    2.7360 C   0  0  0  0  0
   -1.8020   -1.0510    0.5610 C   0  0  0  0  0
   -3.0610   -1.6040    4.0140 C   0  0  0  0  0
   -2.3110   -2.6810    4.3750 C   0  0  0  0  0
   -1.3840   -3.2370    3.4960 C   0  0  0  0  0
   -1.2010   -2.7200    2.2500 C   0  0  0  0  0
    3.3030   -0.1500    4.1770 C   0  0  0  0  0
    3.5440    0.4390    5.2090 O   0  0  0  0  0
    4.0590   -1.4070    3.8330 C   0  0  0  0  0
    2.2360   -0.5360   -2.5280 H   0  0  0  0  0
   -0.4490    2.4120   -4.0350 H   0  0  0  0  0
   -0.8880    1.0190   -6.0150 H   0  0  0  0  0
    0.2260   -1.1590   -6.2630 H   0  0  0  0  0
    2.1730   -3.9460   -5.7550 H   0  0  0  0  0
    1.1180   -2.7790   -6.3460 H   0  0  0  0  0
    3.2420   -3.5760   -3.7280 H   0  0  0  0  0
    1.0740    2.9300   -2.2220 H   0  0  0  0  0
    2.1930    1.6980   -1.5910 H   0  0  0  0  0
    0.2190    0.4620   -0.6450 H   0  0  0  0  0
    1.0710    3.3610    2.6250 H   0  0  0  0  0
    2.7890    2.9080    2.4660 H   0  0  0  0  0
    0.5600    1.3050    3.8000 H   0  0  0  0  0
    2.0160    1.9880    4.5700 H   0  0  0  0  0
    2.7560   -1.2100    1.9480 H   0  0  0  0  0
    1.0390   -0.7580    2.1110 H   0  0  0  0  0
    1.8070    0.1580    0.0080 H   0  0  0  0  0
    3.2630    0.8420    0.7770 H   0  0  0  0  0
   -1.3800    2.8130   -1.5130 H   0  0  0  0  0
   -4.0580    1.4380    0.7680 H   0  0  0  0  0
   -4.3800    0.5100    2.9970 H   0  0  0  0  0
   -1.0900   -1.4740   -0.1320 H   0  0  0  0  0
   -3.7760   -1.1830    4.7060 H   0  0  0  0  0
   -2.4360   -3.1100    5.3580 H   0  0  0  0  0
   -0.8010   -4.0910    3.8080 H   0  0  0  0  0
   -0.4790   -3.1610    1.5800 H   0  0  0  0  0
    4.7750   -1.6290    4.6250 H   0  0  0  0  0
    3.3590   -2.2360    3.7340 H   0  0  0  0  0
    4.5910   -1.2660    2.8920 H   0  0  0  0  0
  1  2  2  0  0  0
  1  3  1  0  0  0
  1 10  1  0  0  0
  2  6  1  0  0  0
  2 37  1  0  0  0
  3  4  2  0  0  0
  3 38  1  0  0  0
  4  5  1  0  0  0
  4 39  1  0  0  0
  5  6  2  0  0  0
  5 40  1  0  0  0
  6  7  1  0  0  0
  7  8  1  0  0  0
  7  9  2  0  0  0
  8 41  1  0  0  0
  8 42  1  0  0  0
  9 43  1  0  0  0
 10 11  1  0  0  0
 10 44  1  0  0  0
 10 45  1  0  0  0
 11 12  1  0  0  0
 11 20  1  0  0  0
 11 46  1  0  0  0
 12 13  2  0  0  0
 12 14  1  0  0  0
 14 15  1  0  0  0
 14 18  1  0  0  0
 15 16  1  0  0  0
 15 47  1  0  0  0
 15 48  1  0  0  0
 16 19  1  0  0  0
 16 49  1  0  0  0
 16 50  1  0  0  0
 17 18  1  0  0  0
 17 19  1  0  0  0
 17 51  1  0  0  0
 17 52  1  0  0  0
 18 53  1  0  0  0
 18 54  1  0  0  0
 19 34  1  0  0  0
 20 21  1  0  0  0
 20 55  1  0  0  0
 21 22  2  0  0  0
 21 23  2  0  0  0
 21 24  1  0  0  0
 24 25  2  0  0  0
 24 29  1  0  0  0
 25 26  1  0  0  0
 25 56  1  0  0  0
 26 28  2  0  0  0
 26 57  1  0  0  0
 27 28  1  0  0  0
 27 29  2  0  0  0
 27 33  1  0  0  0
 28 30  1  0  0  0
 29 58  1  0  0  0
 30 31  2  0  0  0
 30 59  1  0  0  0
 31 32  1  0  0  0
 31 60  1  0  0  0
 32 33  2  0  0  0
 32 61  1  0  0  0
 33 62  1  0  0  0
 34 35  2  0  0  0
 34 36  1  0  0  0
 36 63  1  0  0  0
 36 64  1  0  0  0
 36 65  1  0  0  0
M  END
$$$$
