FO9
  CCTOOLS-0919241036

 37 37  0  0  0  0  0  0  0  0999 V2000
    1.9750    1.3090    0.0360 C   0  0  0  0  0
    1.2660   -0.0460    0.0110 C   0  0  0  0  0
   -3.6050    2.0470   -0.2960 N   0  0  0  0  0
    6.0650    0.1180    1.2540 O   0  0  0  0  0
    5.5880   -0.3400   -0.0040 S   0  0  0  0  0
    6.0590    0.1660   -1.2450 O   0  0  0  0  0
    5.8480   -1.9750   -0.0360 N   0  0  0  0  0
    3.9480   -0.1050    0.0040 N   0  0  0  0  0
    3.4670    1.0950    0.0290 C   0  0  0  0  0
    4.3140    2.1720    0.0480 N   0  0  0  0  0
   -0.5300    0.2110    0.0200 S   0  0  0  0  0
   -1.1850   -1.4800   -0.0120 C   0  0  0  0  0
   -2.6910   -1.4360   -0.0080 C   0  0  0  0  0
   -3.4030   -0.3570    0.0140 N   0  0  0  0  0
   -4.7180   -0.3730    0.0160 C   0  0  0  0  0
   -5.2470   -1.8460   -0.0100 S   0  0  0  0  0
   -3.6030   -2.6530   -0.0360 C   0  0  0  0  0
   -5.4930    0.7150    0.0390 N   0  0  0  0  0
   -4.9470    1.9180   -0.0370 C   0  0  0  0  0
   -5.7220    3.0360    0.1430 N   0  0  0  0  0
    1.6870    1.8870   -0.8430 H   0  0  0  0  0
    1.6910    1.8520    0.9370 H   0  0  0  0  0
    1.5510   -0.5890   -0.8900 H   0  0  0  0  0
    1.5540   -0.6230    0.8890 H   0  0  0  0  0
   -3.1350    1.3500   -0.7790 H   0  0  0  0  0
    5.0950   -2.5860   -0.0460 H   0  0  0  0  0
    6.7540   -2.3220   -0.0450 H   0  0  0  0  0
    3.9530    3.0730    0.0660 H   0  0  0  0  0
   -0.8380   -1.9870   -0.9130 H   0  0  0  0  0
   -0.8350   -2.0220    0.8670 H   0  0  0  0  0
   -3.4600   -3.2310   -0.9490 H   0  0  0  0  0
   -5.3220    3.9170    0.0870 H   0  0  0  0  0
   -6.6700    2.9440    0.3260 H   0  0  0  0  0
   -3.1280    2.8360    0.0050 H   0  0  0  0  0
    5.2740    2.0350    0.0430 H   0  0  0  0  0
   -5.6650   -2.0400    1.2530 H   0  0  0  0  0
   -3.4570   -3.2750    0.8480 H   0  0  0  0  0
  1  2  1  0  0  0
  1  9  1  0  0  0
  1 21  1  0  0  0
  1 22  1  0  0  0
  2 11  1  0  0  0
  2 23  1  0  0  0
  2 24  1  0  0  0
  3 19  1  0  0  0
  3 25  1  0  0  0
  3 34  1  0  0  0
  4  5  2  0  0  0
  5  6  2  0  0  0
  5  7  1  0  0  0
  5  8  1  0  0  0
  7 26  1  0  0  0
  7 27  1  0  0  0
  8  9  2  0  0  0
  9 10  1  0  0  0
 10 28  1  0  0  0
 10 35  1  0  0  0
 11 12  1  0  0  0
 12 13  1  0  0  0
 12 29  1  0  0  0
 12 30  1  0  0  0
 13 14  2  0  0  0
 13 17  1  0  0  0
 14 15  1  0  0  0
 15 16  2  0  0  0
 15 18  1  0  0  0
 16 17  1  0  0  0
 16 36  1  0  0  0
 17 31  1  0  0  0
 17 37  1  0  0  0
 18 19  2  0  0  0
 19 20  1  0  0  0
 20 32  1  0  0  0
 20 33  1  0  0  0
M  END
$$$$
