GOZ
  CCTOOLS-0919241041

 54 56  0  0  1  0  0  0  0  0999 V2000
    1.9230   -0.5880    0.1280 C   0  0  0  0  0
   -0.1260    0.7090    0.7660 C   0  0  0  0  0
   -1.0460    0.0740   -0.2460 C   0  0  0  0  0
   -3.2720   -0.5360   -1.0270 C   0  0  0  0  0
   -4.7000   -0.3940   -0.5670 C   0  0  0  0  0
   -6.7660    0.8120   -0.4870 C   0  0  0  0  0
   -5.4520    0.7120   -0.9280 C   0  0  0  0  0
   -5.2900   -1.3680    0.2210 C   0  0  0  0  0
   -6.6080   -1.2060    0.6280 C   0  0  0  0  0
   -0.4280    2.2180    0.8790 C   0  0  0  0  0
    0.9830    2.8430    1.0430 C   0  0  0  0  0
    1.8380    1.9220    0.1380 C   0  0  0  0  0
    4.2750   -0.3160    0.8650 C   0  0  0  0  0
    5.6990   -0.1830    0.3870 C   0  0  0  0  0
    6.1950    1.0570    0.0320 C   0  0  0  0  0
    7.5010    1.1790   -0.4060 C   0  0  0  0  0
    8.3090    0.0610   -0.4880 C   0  0  0  0  0
    7.8130   -1.1790   -0.1320 C   0  0  0  0  0
    6.5090   -1.3000    0.3110 C   0  0  0  0  0
    1.3540   -1.6420    0.3150 O   0  0  0  0  0
    3.6910   -1.8770   -0.9300 N   0  0  0  0  0
    3.3580   -0.5770   -0.3320 C   0  0  0  0  0
   -0.5860   -0.4440   -1.2420 O   0  0  0  0  0
    1.2700    0.5750    0.3260 N   0  0  0  0  0
   -2.3780    0.0810   -0.0430 N   0  0  0  0  0
   -7.2080   -2.1790    1.4200 N   0  0  0  0  0
   -7.3000   -0.1340    0.2700 N   0  0  0  0  0
   -7.5290    1.9180   -0.8450 N   0  0  0  0  0
   -0.2570    0.2300    1.7360 H   0  0  0  0  0
   -3.0260   -1.5940   -1.1280 H   0  0  0  0  0
   -3.1490   -0.0410   -1.9900 H   0  0  0  0  0
   -5.0220    1.4870   -1.5460 H   0  0  0  0  0
   -4.7310   -2.2440    0.5160 H   0  0  0  0  0
   -0.9090    2.5840   -0.0270 H   0  0  0  0  0
   -1.0450    2.4230    1.7550 H   0  0  0  0  0
    0.9990    3.8710    0.6820 H   0  0  0  0  0
    1.3150    2.7890    2.0800 H   0  0  0  0  0
    1.7500    2.2280   -0.9050 H   0  0  0  0  0
    2.8810    1.9420    0.4540 H   0  0  0  0  0
    4.2030   -1.1480    1.5650 H   0  0  0  0  0
    3.9710    0.6050    1.3620 H   0  0  0  0  0
    5.5630    1.9300    0.0950 H   0  0  0  0  0
    7.8880    2.1480   -0.6840 H   0  0  0  0  0
    9.3290    0.1560   -0.8310 H   0  0  0  0  0
    8.4450   -2.0520   -0.1970 H   0  0  0  0  0
    6.1210   -2.2690    0.5890 H   0  0  0  0  0
    3.5710   -2.6230   -0.2620 H   0  0  0  0  0
    3.1430   -2.0430   -1.7610 H   0  0  0  0  0
    3.4960    0.2100   -1.0740 H   0  0  0  0  0
   -2.7450    0.4940    0.7530 H   0  0  0  0  0
   -6.7070   -2.9660    1.6850 H   0  0  0  0  0
   -8.1290   -2.0710    1.7070 H   0  0  0  0  0
   -7.1430    2.6150   -1.3990 H   0  0  0  0  0
   -8.4460    1.9940   -0.5390 H   0  0  0  0  0
  1 20  2  0  0  0
  1 22  1  0  0  0
  2 24  1  0  0  0
  2 29  1  0  0  0
  3 25  1  0  0  0
  3  2  1  0  0  0
  4 25  1  0  0  0
  4  5  1  0  0  0
  4 30  1  0  0  0
  4 31  1  0  0  0
  5  7  1  0  0  0
  6 28  1  0  0  0
  7  6  2  0  0  0
  7 32  1  0  0  0
  8  5  2  0  0  0
  8  9  1  0  0  0
  8 33  1  0  0  0
  9 26  1  0  0  0
  9 27  2  0  0  0
 10 11  1  0  0  0
 10  2  1  0  0  0
 10 34  1  0  0  0
 10 35  1  0  0  0
 11 12  1  0  0  0
 11 36  1  0  0  0
 11 37  1  0  0  0
 12 24  1  0  0  0
 12 38  1  0  0  0
 12 39  1  0  0  0
 13 14  1  0  0  0
 13 40  1  0  0  0
 13 41  1  0  0  0
 14 15  2  0  0  0
 15 16  1  0  0  0
 15 42  1  0  0  0
 16 43  1  0  0  0
 17 16  2  0  0  0
 17 44  1  0  0  0
 18 17  1  0  0  0
 18 45  1  0  0  0
 19 18  2  0  0  0
 19 14  1  0  0  0
 19 46  1  0  0  0
 21 22  1  0  0  0
 21 47  1  0  0  0
 21 48  1  0  0  0
 22 13  1  0  0  0
 22 49  1  0  0  0
 23  3  2  0  0  0
 24  1  1  0  0  0
 25 50  1  0  0  0
 26 51  1  0  0  0
 26 52  1  0  0  0
 27  6  1  0  0  0
 28 53  1  0  0  0
 28 54  1  0  0  0
M  END
$$$$
