GP8
  CCTOOLS-0919241041

 44 46  0  0  0  0  0  0  0  0999 V2000
   -1.5810    0.5960    7.6960 N   0  0  0  0  0
   -2.4030   -1.3010    6.6400 N   0  0  0  0  0
   -1.5920   -0.2810    6.6340 C   0  0  0  0  0
   -0.6830   -0.0660    5.4870 C   0  0  0  0  0
   -0.6930   -0.9550    4.4110 C   0  0  0  0  0
    0.1540   -0.7520    3.3440 C   0  0  0  0  0
    1.0200    0.3360    3.3390 C   0  0  0  0  0
    1.0310    1.2230    4.4100 C   0  0  0  0  0
    0.1820    1.0280    5.4770 C   0  0  0  0  0
    1.8780    0.5390    2.2570 N   0  0  0  0  0
    1.4900    0.1890    1.0150 C   0  0  0  0  0
    0.3560   -0.2030    0.8200 O   0  0  0  0  0
    2.3590    0.2750   -0.0110 N   0  0  0  0  0
    1.9280    0.0100   -1.3180 C   0  0  0  0  0
    0.6320    0.3280   -1.6990 C   0  0  0  0  0
    0.2080    0.0680   -2.9870 C   0  0  0  0  0
    1.0770   -0.5110   -3.9000 C   0  0  0  0  0
    2.3730   -0.8280   -3.5200 C   0  0  0  0  0
    2.7990   -0.5640   -2.2340 C   0  0  0  0  0
    0.6590   -0.7670   -5.1680 O   0  0  0  0  0
   -0.5910   -0.2490   -5.2820 C   0  0  0  0  0
   -0.7640    1.0680   -5.6800 C   0  0  0  0  0
   -2.0370    1.5920   -5.7950 C   0  0  0  0  0
   -3.1390    0.8050   -5.5130 C   0  0  0  0  0
   -2.9690   -0.5080   -5.1160 C   0  0  0  0  0
   -1.6980   -1.0390   -5.0050 C   0  0  0  0  0
   -0.9750    1.3530    7.6930 H   0  0  0  0  0
   -2.1780    0.4550    8.4480 H   0  0  0  0  0
   -2.4110   -1.9190    5.8920 H   0  0  0  0  0
   -1.3640   -1.8010    4.4140 H   0  0  0  0  0
    0.1480   -1.4400    2.5110 H   0  0  0  0  0
    1.7040    2.0680    4.4030 H   0  0  0  0  0
    0.1910    1.7180    6.3080 H   0  0  0  0  0
    2.7530    0.9310    2.3990 H   0  0  0  0  0
    3.2830    0.5190    0.1540 H   0  0  0  0  0
   -0.0440    0.7790   -0.9890 H   0  0  0  0  0
   -0.8000    0.3160   -3.2840 H   0  0  0  0  0
    3.0490   -1.2790   -4.2310 H   0  0  0  0  0
    3.8080   -0.8110   -1.9370 H   0  0  0  0  0
    0.0940    1.6840   -5.8990 H   0  0  0  0  0
   -2.1730    2.6180   -6.1040 H   0  0  0  0  0
   -4.1330    1.2170   -5.6030 H   0  0  0  0  0
   -3.8310   -1.1200   -4.8960 H   0  0  0  0  0
   -1.5670   -2.0650   -4.6950 H   0  0  0  0  0
  1  3  1  0  0  0
  1 27  1  0  0  0
  1 28  1  0  0  0
  2  3  2  0  0  0
  2 29  1  0  0  0
  3  4  1  0  0  0
  4  5  2  0  0  0
  4  9  1  0  0  0
  5  6  1  0  0  0
  5 30  1  0  0  0
  6  7  2  0  0  0
  6 31  1  0  0  0
  7  8  1  0  0  0
  7 10  1  0  0  0
  8  9  2  0  0  0
  8 32  1  0  0  0
  9 33  1  0  0  0
 10 11  1  0  0  0
 10 34  1  0  0  0
 11 12  2  0  0  0
 11 13  1  0  0  0
 13 14  1  0  0  0
 13 35  1  0  0  0
 14 15  2  0  0  0
 14 19  1  0  0  0
 15 16  1  0  0  0
 15 36  1  0  0  0
 16 17  2  0  0  0
 16 37  1  0  0  0
 17 18  1  0  0  0
 17 20  1  0  0  0
 18 19  2  0  0  0
 18 38  1  0  0  0
 19 39  1  0  0  0
 20 21  1  0  0  0
 21 22  2  0  0  0
 21 26  1  0  0  0
 22 23  1  0  0  0
 22 40  1  0  0  0
 23 24  2  0  0  0
 23 41  1  0  0  0
 24 25  1  0  0  0
 24 42  1  0  0  0
 25 26  2  0  0  0
 25 43  1  0  0  0
 26 44  1  0  0  0
M  END
$$$$
