GZC
  CCTOOLS-0919241043

 50 51  0  0  0  0  0  0  0  0999 V2000
   -7.2270    3.8020   -0.6860 N   0  0  0  0  0
   -6.4590    2.7310   -0.2930 C   0  0  0  0  0
   -6.9820    1.4580   -0.3330 N   0  0  0  0  0
   -6.1630    0.3560   -0.0530 C   0  0  0  0  0
   -6.6950   -0.7590    0.5860 C   0  0  0  0  0
   -5.8970   -1.8500    0.8650 C   0  0  0  0  0
    5.9120   -1.7680   -0.9140 C   0  0  0  0  0
    6.7040   -0.6870   -0.5820 C   0  0  0  0  0
    6.1660    0.3890    0.1160 C   0  0  0  0  0
    6.9770    1.4820    0.4480 N   0  0  0  0  0
    6.4880    2.7630    0.3320 C   0  0  0  0  0
    5.2490    2.9780   -0.2260 N   0  0  0  0  0
   -5.2360    2.9210    0.1170 N   0  0  0  0  0
   -4.8280    0.3760   -0.4190 C   0  0  0  0  0
   -4.0140   -0.7240   -0.1390 C   0  0  0  0  0
   -4.5560   -1.8410    0.5110 C   0  0  0  0  0
   -3.7730   -2.9150    0.7860 O   0  0  0  0  0
    3.7960   -2.8510   -0.8850 O   0  0  0  0  0
    4.5740   -1.7880   -0.5540 C   0  0  0  0  0
    4.0250   -0.7100    0.1540 C   0  0  0  0  0
    4.8310    0.3830    0.4820 C   0  0  0  0  0
    7.1980    3.7730    0.7500 N   0  0  0  0  0
   -2.5920   -0.7100   -0.5250 C   0  0  0  0  0
   -1.8410   -1.7310   -0.2650 N   0  0  0  0  0
   -0.4270   -1.7170   -0.6490 C   0  0  0  0  0
    0.4440   -1.7480    0.6090 C   0  0  0  0  0
    1.8570   -1.7340    0.2260 N   0  0  0  0  0
    2.6030   -0.7240    0.5400 C   0  0  0  0  0
   -6.8590    4.6990   -0.6580 H   0  0  0  0  0
   -8.1350    3.6600   -0.9950 H   0  0  0  0  0
   -7.9170    1.3240   -0.5540 H   0  0  0  0  0
   -7.7390   -0.7720    0.8650 H   0  0  0  0  0
   -6.3170   -2.7120    1.3610 H   0  0  0  0  0
    6.3360   -2.5990   -1.4590 H   0  0  0  0  0
    7.7460   -0.6770   -0.8650 H   0  0  0  0  0
    7.8840    1.3360    0.7610 H   0  0  0  0  0
    4.7210    2.2260   -0.5380 H   0  0  0  0  0
    4.9040    3.8810   -0.3080 H   0  0  0  0  0
   -4.8680    3.8180    0.1450 H   0  0  0  0  0
   -4.4170    1.2410   -0.9190 H   0  0  0  0  0
   -3.3360   -2.8720    1.6480 H   0  0  0  0  0
    3.7810   -3.5510   -0.2190 H   0  0  0  0  0
    4.4150    1.2190    1.0240 H   0  0  0  0  0
    8.1000    3.6290    1.0770 H   0  0  0  0  0
   -2.1770    0.1530   -1.0260 H   0  0  0  0  0
   -0.2090   -2.5900   -1.2630 H   0  0  0  0  0
   -0.2130   -0.8110   -1.2160 H   0  0  0  0  0
    0.2250   -0.8740    1.2240 H   0  0  0  0  0
    0.2300   -2.6540    1.1770 H   0  0  0  0  0
    2.1840    0.1090    1.0850 H   0  0  0  0  0
  1 29  1  0  0  0
  1 30  1  0  0  0
  2  1  1  0  0  0
  2 13  2  0  0  0
  3  2  1  0  0  0
  3 31  1  0  0  0
  4  3  1  0  0  0
  5  4  1  0  0  0
  5 32  1  0  0  0
  6  5  2  0  0  0
  6 33  1  0  0  0
  7 19  1  0  0  0
  7 34  1  0  0  0
  8  7  2  0  0  0
  8 35  1  0  0  0
  9 21  2  0  0  0
  9  8  1  0  0  0
 10  9  1  0  0  0
 10 36  1  0  0  0
 11 10  1  0  0  0
 12 11  1  0  0  0
 12 37  1  0  0  0
 12 38  1  0  0  0
 13 39  1  0  0  0
 14  4  2  0  0  0
 14 40  1  0  0  0
 15 14  1  0  0  0
 16 15  2  0  0  0
 16  6  1  0  0  0
 17 16  1  0  0  0
 17 41  1  0  0  0
 18 42  1  0  0  0
 19 18  1  0  0  0
 20 28  1  0  0  0
 20 19  2  0  0  0
 21 20  1  0  0  0
 21 43  1  0  0  0
 22 11  2  0  0  0
 22 44  1  0  0  0
 23 15  1  0  0  0
 23 45  1  0  0  0
 24 23  2  0  0  0
 25 24  1  0  0  0
 25 46  1  0  0  0
 25 47  1  0  0  0
 26 25  1  0  0  0
 26 48  1  0  0  0
 26 49  1  0  0  0
 27 26  1  0  0  0
 28 27  2  0  0  0
 28 50  1  0  0  0
M  END
$$$$
