I4Q
  CCTOOLS-0919241031

 44 44  0  0  1  0  0  0  0  0999 V2000
    2.2920   -0.2950    1.6270 O   0  0  0  0  0
    1.6890   -2.4440   -0.8370 O   0  0  0  0  0
    0.0800   -3.6270    0.1090 O   0  0  0  0  0
    3.9670    1.8200    0.9120 C   0  0  0  0  0
    2.8460    1.4460    0.1700 C   0  0  0  0  0
   -0.1170   -6.0520    0.0070 C   0  0  0  0  0
    0.7010   -4.8300   -0.4150 C   0  0  0  0  0
    0.6790   -2.4590   -0.1740 C   0  0  0  0  0
    0.0920   -1.1680    0.3360 C   0  0  0  0  0
   -1.3250   -1.0000   -0.2160 C   0  0  0  0  0
   -1.9670    0.2450    0.3980 C   0  0  0  0  0
   -3.3840    0.4140   -0.1540 C   0  0  0  0  0
   -3.9990    1.6070    0.4350 N   0  0  0  0  0
   -5.2800    1.9620    0.0860 C   0  0  0  0  0
   -5.9850    1.1990   -0.8150 N   0  0  0  0  0
   -5.8270    3.0230    0.6100 N   0  0  0  0  0
    0.9240   -0.0460   -0.1050 N   0  0  0  0  0
    2.0060    0.3130    0.6140 C   0  0  0  0  0
    4.7440    2.8820    0.4950 C   0  0  0  0  0
    4.4120    3.5750   -0.6560 C   0  0  0  0  0
    3.3020    3.2090   -1.3960 C   0  0  0  0  0
    2.5210    2.1460   -0.9930 C   0  0  0  0  0
    4.2250    1.2820    1.8120 H   0  0  0  0  0
   -0.1550   -6.1060    1.0950 H   0  0  0  0  0
   -1.1300   -5.9650   -0.3870 H   0  0  0  0  0
    0.3490   -6.9550   -0.3860 H   0  0  0  0  0
    0.7390   -4.7760   -1.5030 H   0  0  0  0  0
    1.7140   -4.9180   -0.0200 H   0  0  0  0  0
    0.0570   -1.1900    1.4250 H   0  0  0  0  0
   -1.2820   -0.8890   -1.3000 H   0  0  0  0  0
   -1.9200   -1.8780    0.0360 H   0  0  0  0  0
   -2.0100    0.1350    1.4820 H   0  0  0  0  0
   -1.3720    1.1230    0.1460 H   0  0  0  0  0
   -3.3410    0.5250   -1.2370 H   0  0  0  0  0
   -3.9790   -0.4640    0.0990 H   0  0  0  0  0
   -3.5020    2.1450    1.0700 H   0  0  0  0  0
   -5.5780    0.4100   -1.2040 H   0  0  0  0  0
   -6.8890    1.4510   -1.0610 H   0  0  0  0  0
   -6.7310    3.2750    0.3640 H   0  0  0  0  0
    0.6960    0.4390   -0.9130 H   0  0  0  0  0
    5.6110    3.1730    1.0680 H   0  0  0  0  0
    5.0200    4.4090   -0.9750 H   0  0  0  0  0
    3.0490    3.7540   -2.2930 H   0  0  0  0  0
    1.6550    1.8610   -1.5720 H   0  0  0  0  0
  1 18  2  0  0  0
  3  7  1  0  0  0
  3  8  1  0  0  0
  4  5  1  0  0  0
  4 23  1  0  0  0
  5 18  1  0  0  0
  6 24  1  0  0  0
  6 25  1  0  0  0
  6 26  1  0  0  0
  7  6  1  0  0  0
  7 27  1  0  0  0
  7 28  1  0  0  0
  8  2  2  0  0  0
  9  8  1  0  0  0
  9 10  1  0  0  0
  9 29  1  0  0  0
 10 30  1  0  0  0
 10 31  1  0  0  0
 11 12  1  0  0  0
 11 10  1  0  0  0
 11 32  1  0  0  0
 11 33  1  0  0  0
 12 34  1  0  0  0
 12 35  1  0  0  0
 13 14  1  0  0  0
 13 12  1  0  0  0
 13 36  1  0  0  0
 14 15  1  0  0  0
 15 37  1  0  0  0
 15 38  1  0  0  0
 16 14  2  0  0  0
 16 39  1  0  0  0
 17  9  1  0  0  0
 17 40  1  0  0  0
 18 17  1  0  0  0
 19  4  2  0  0  0
 19 41  1  0  0  0
 20 21  2  0  0  0
 20 19  1  0  0  0
 20 42  1  0  0  0
 21 22  1  0  0  0
 21 43  1  0  0  0
 22  5  2  0  0  0
 22 44  1  0  0  0
M  END
$$$$
