IGN
  CCTOOLS-0919241033

 69 70  0  0  1  0  0  0  0  0999 V2000
    2.0850    0.4660    1.3810 C   0  0  0  0  0
    1.9050    1.6650    1.3650 O   0  0  0  0  0
    1.6340   -0.2680    2.4170 N   0  0  0  0  0
    0.9250    0.3800    3.5220 C   0  0  0  0  0
    0.5230   -0.6700    4.5580 C   0  0  0  0  0
   -0.2170    0.0070    5.7130 C   0  0  0  0  0
   -0.6020   -0.9990    6.7050 N   0  0  0  0  0
   -1.2830   -0.6220    7.8380 C   0  0  0  0  0
   -1.5860    0.6300    8.0300 N   0  0  0  0  0
   -1.6440   -1.5670    8.7690 N   0  0  0  0  0
    2.0050   -0.1140   -0.9780 N   0  0  0  0  0
    2.8150   -0.2020    0.2440 C   0  0  0  0  0
    4.1520    0.5050    0.0060 C   0  0  0  0  0
    4.8240   -0.0860   -1.2350 C   0  0  0  0  0
    3.9320    0.1410   -2.4570 C   0  0  0  0  0
    2.5920   -0.5690   -2.2470 C   0  0  0  0  0
    0.2410    0.6530    0.1260 O   0  0  0  0  0
    0.7520    0.3780   -0.9390 C   0  0  0  0  0
   -0.0150    0.5870   -2.2190 C   0  0  0  0  0
   -0.3170   -0.7680   -2.8600 C   0  0  0  0  0
   -0.0390    0.1160   -5.1800 C   0  0  0  0  0
   -1.0110   -0.5520   -4.2060 C   0  0  0  0  0
   -1.4540   -1.9020   -4.7740 C   0  0  0  0  0
   -2.1490   -1.6860   -6.1200 C   0  0  0  0  0
   -1.1770   -1.0170   -7.0940 C   0  0  0  0  0
   -0.7340    0.3320   -6.5260 C   0  0  0  0  0
   -1.2760    1.2810   -1.9250 N   0  0  0  0  0
   -2.1060    0.3420   -1.1590 C   0  0  0  0  0
   -3.4520    0.9660   -0.8900 C   0  0  0  0  0
   -3.6940    2.0780   -1.2950 O   0  0  0  0  0
   -4.3810    0.2850   -0.2000 O   0  0  0  0  0
    1.7780   -1.2270    2.4300 H   0  0  0  0  0
    0.0310    0.8740    3.1400 H   0  0  0  0  0
    1.5770    1.1190    3.9880 H   0  0  0  0  0
    1.4160   -1.1640    4.9400 H   0  0  0  0  0
   -0.1290   -1.4090    4.0920 H   0  0  0  0  0
   -1.1100    0.5010    5.3310 H   0  0  0  0  0
    0.4350    0.7460    6.1790 H   0  0  0  0  0
   -0.3760   -1.9310    6.5620 H   0  0  0  0  0
   -1.3310    1.2970    7.3730 H   0  0  0  0  0
   -2.1250   -1.3010    9.5680 H   0  0  0  0  0
   -1.4220   -2.5000    8.6240 H   0  0  0  0  0
    2.9930   -1.2480    0.4900 H   0  0  0  0  0
    3.9780    1.5700   -0.1470 H   0  0  0  0  0
    4.7990    0.3630    0.8720 H   0  0  0  0  0
    5.7870    0.3980   -1.3920 H   0  0  0  0  0
    4.9750   -1.1560   -1.0900 H   0  0  0  0  0
    3.7600    1.2100   -2.5870 H   0  0  0  0  0
    4.4210   -0.2590   -3.3450 H   0  0  0  0  0
    1.9170   -0.3290   -3.0680 H   0  0  0  0  0
    2.7520   -1.6470   -2.2070 H   0  0  0  0  0
    0.5790    1.1900   -2.9050 H   0  0  0  0  0
    0.6140   -1.3110   -3.0150 H   0  0  0  0  0
   -0.9680   -1.3440   -2.2030 H   0  0  0  0  0
    0.2750    1.0780   -4.7760 H   0  0  0  0  0
    0.8320   -0.5220   -5.3200 H   0  0  0  0  0
   -1.8830    0.0860   -4.0670 H   0  0  0  0  0
   -0.5820   -2.5410   -4.9130 H   0  0  0  0  0
   -2.1470   -2.3780   -4.0800 H   0  0  0  0  0
   -3.0210   -1.0470   -5.9800 H   0  0  0  0  0
   -2.4640   -2.6480   -6.5240 H   0  0  0  0  0
   -1.6720   -0.8640   -8.0530 H   0  0  0  0  0
   -0.3050   -1.6560   -7.2330 H   0  0  0  0  0
   -1.6060    0.9710   -6.3870 H   0  0  0  0  0
   -0.0410    0.8080   -7.2200 H   0  0  0  0  0
   -1.0500    2.0430   -1.3030 H   0  0  0  0  0
   -2.2390   -0.5750   -1.7310 H   0  0  0  0  0
   -1.6160    0.1130   -0.2120 H   0  0  0  0  0
   -5.2440    0.6850   -0.0270 H   0  0  0  0  0
  1  2  2  0  0  0
  1  3  1  0  0  0
  1 12  1  0  0  0
  3  4  1  0  0  0
  3 32  1  0  0  0
  4  5  1  0  0  0
  4 33  1  0  0  0
  4 34  1  0  0  0
  5  6  1  0  0  0
  5 35  1  0  0  0
  5 36  1  0  0  0
  6  7  1  0  0  0
  6 37  1  0  0  0
  6 38  1  0  0  0
  7  8  1  0  0  0
  7 39  1  0  0  0
  8  9  2  0  0  0
  8 10  1  0  0  0
  9 40  1  0  0  0
 10 41  1  0  0  0
 10 42  1  0  0  0
 11 12  1  0  0  0
 11 16  1  0  0  0
 11 18  1  0  0  0
 12 13  1  0  0  0
 12 43  1  0  0  0
 13 14  1  0  0  0
 13 44  1  0  0  0
 13 45  1  0  0  0
 14 15  1  0  0  0
 14 46  1  0  0  0
 14 47  1  0  0  0
 15 16  1  0  0  0
 15 48  1  0  0  0
 15 49  1  0  0  0
 16 50  1  0  0  0
 16 51  1  0  0  0
 17 18  2  0  0  0
 18 19  1  0  0  0
 19 20  1  0  0  0
 19 27  1  0  0  0
 19 52  1  0  0  0
 20 22  1  0  0  0
 20 53  1  0  0  0
 20 54  1  0  0  0
 21 22  1  0  0  0
 21 26  1  0  0  0
 21 55  1  0  0  0
 21 56  1  0  0  0
 22 23  1  0  0  0
 22 57  1  0  0  0
 23 24  1  0  0  0
 23 58  1  0  0  0
 23 59  1  0  0  0
 24 25  1  0  0  0
 24 60  1  0  0  0
 24 61  1  0  0  0
 25 26  1  0  0  0
 25 62  1  0  0  0
 25 63  1  0  0  0
 26 64  1  0  0  0
 26 65  1  0  0  0
 27 28  1  0  0  0
 27 66  1  0  0  0
 28 29  1  0  0  0
 28 67  1  0  0  0
 28 68  1  0  0  0
 29 30  2  0  0  0
 29 31  1  0  0  0
 31 69  1  0  0  0
M  END
$$$$
