IN4
  CCTOOLS-0919241033

 50 51  0  0  1  0  0  0  0  0999 V2000
   -1.9220    1.6030    3.7380 C   0  0  0  0  0
   -1.2210    2.3230    2.7920 C   0  0  0  0  0
   -0.4000    1.6710    1.8900 C   0  0  0  0  0
   -0.2760    0.2930    1.9300 C   0  0  0  0  0
   -0.9770   -0.4370    2.8670 C   0  0  0  0  0
   -1.8010    0.2150    3.7830 C   0  0  0  0  0
    0.6200   -0.4090    0.9440 C   0  0  0  0  0
    0.1370   -0.1220   -0.4780 C   0  0  0  0  0
    1.0480   -0.8360   -1.4790 C   0  0  0  0  0
    0.5730   -0.5520   -2.8810 C   0  0  0  0  0
   -2.5500   -0.5630    4.7960 C   0  0  0  0  0
   -2.4360   -1.8600    4.8360 N   0  0  0  0  0
   -3.3680    0.0840    5.6960 N   0  0  0  0  0
    1.0650    0.5430   -3.5670 C   0  0  0  0  0
    0.6340    0.8080   -4.8500 C   0  0  0  0  0
   -0.2990   -0.0320   -5.4570 C   0  0  0  0  0
   -0.7660    0.2460   -6.8340 C   0  0  0  0  0
   -0.7910   -1.1350   -4.7600 C   0  0  0  0  0
   -0.3480   -1.3930   -3.4790 C   0  0  0  0  0
   -0.3050    1.2770   -7.4820 N   0  0  0  0  0
   -1.6880   -0.5850   -7.4300 N   0  0  0  0  0
    2.0540    0.0960    1.1090 C   0  0  0  0  0
    2.5290   -0.1870    2.5110 C   0  0  0  0  0
    1.7960   -0.7370    3.2970 O   0  0  0  0  0
    3.7670    0.1710    2.8850 O   0  0  0  0  0
    4.2250   -0.1010    4.2360 C   0  0  0  0  0
   -2.5620    2.1140    4.4420 H   0  0  0  0  0
   -1.3140    3.3990    2.7560 H   0  0  0  0  0
    0.1460    2.2390    1.1520 H   0  0  0  0  0
   -0.8800   -1.5120    2.8970 H   0  0  0  0  0
    0.5900   -1.4830    1.1280 H   0  0  0  0  0
   -0.8840   -0.4820   -0.5950 H   0  0  0  0  0
    0.1670    0.9510   -0.6620 H   0  0  0  0  0
    2.0700   -0.4750   -1.3620 H   0  0  0  0  0
    1.0180   -1.9100   -1.2950 H   0  0  0  0  0
   -2.9270   -2.3700    5.4990 H   0  0  0  0  0
   -3.8590   -0.4250    6.3590 H   0  0  0  0  0
   -3.4540    1.0490    5.6660 H   0  0  0  0  0
    1.7870    1.1930   -3.0960 H   0  0  0  0  0
    1.0180    1.6640   -5.3850 H   0  0  0  0  0
   -1.5140   -1.7900   -5.2250 H   0  0  0  0  0
   -0.7280   -2.2470   -2.9390 H   0  0  0  0  0
   -0.6110    1.4600   -8.3840 H   0  0  0  0  0
   -1.9940   -0.4030   -8.3320 H   0  0  0  0  0
   -2.0320   -1.3540   -6.9480 H   0  0  0  0  0
    2.0840    1.1700    0.9250 H   0  0  0  0  0
    2.7030   -0.4120    0.3960 H   0  0  0  0  0
    5.2470    0.2580    4.3530 H   0  0  0  0  0
    3.5760    0.4070    4.9490 H   0  0  0  0  0
    4.1950   -1.1750    4.4190 H   0  0  0  0  0
  1  2  2  0  0  0
  1  6  1  0  0  0
  1 27  1  0  0  0
  2  3  1  0  0  0
  2 28  1  0  0  0
  3  4  2  0  0  0
  3 29  1  0  0  0
  4  5  1  0  0  0
  4  7  1  0  0  0
  5  6  2  0  0  0
  5 30  1  0  0  0
  6 11  1  0  0  0
  7  8  1  0  0  0
  7 22  1  0  0  0
  7 31  1  0  0  0
  8  9  1  0  0  0
  8 32  1  0  0  0
  8 33  1  0  0  0
  9 10  1  0  0  0
  9 34  1  0  0  0
  9 35  1  0  0  0
 10 14  2  0  0  0
 10 19  1  0  0  0
 11 12  2  0  0  0
 11 13  1  0  0  0
 12 36  1  0  0  0
 13 37  1  0  0  0
 13 38  1  0  0  0
 14 15  1  0  0  0
 14 39  1  0  0  0
 15 16  2  0  0  0
 15 40  1  0  0  0
 16 17  1  0  0  0
 16 18  1  0  0  0
 17 20  2  0  0  0
 17 21  1  0  0  0
 18 19  2  0  0  0
 18 41  1  0  0  0
 19 42  1  0  0  0
 20 43  1  0  0  0
 21 44  1  0  0  0
 21 45  1  0  0  0
 22 23  1  0  0  0
 22 46  1  0  0  0
 22 47  1  0  0  0
 23 24  2  0  0  0
 23 25  1  0  0  0
 25 26  1  0  0  0
 26 48  1  0  0  0
 26 49  1  0  0  0
 26 50  1  0  0  0
M  END
$$$$
