J3I
  CCTOOLS-0919241035

 61 63  0  0  1  0  0  0  0  0999 V2000
    6.5750   -1.4720   -0.3410 C   0  0  0  0  0
    5.1740   -1.7060    0.2330 C   0  0  0  0  0
    4.2040   -0.6870   -0.3700 C   0  0  0  0  0
    2.7960   -0.9400    0.1750 C   0  0  0  0  0
    0.5390   -0.0890   -0.1690 C   0  0  0  0  0
   -0.4370    0.8330   -0.8540 C   0  0  0  0  0
   -2.2790    1.8370    0.2960 C   0  0  0  0  0
   -2.4790   -0.5590   -0.4290 C   0  0  0  0  0
   -3.8680   -0.6590    0.1480 C   0  0  0  0  0
   -4.8700   -0.0320   -0.8230 C   0  0  0  0  0
   -6.2390   -0.0220   -0.1940 C   0  0  0  0  0
   -7.9010    1.0730    1.1380 C   0  0  0  0  0
   -7.0880   -1.0990   -0.3680 C   0  0  0  0  0
    9.0260   -0.7510    0.8410 N   0  0  0  0  0
    8.1320    0.2430    0.5210 C   0  0  0  0  0
    0.1480   -0.8700    0.6720 O   0  0  0  0  0
   -6.6450    1.0630    0.5610 C   0  0  0  0  0
   -8.7520   -0.0020    0.9600 C   0  0  0  0  0
   -8.3440   -1.0890    0.2090 C   0  0  0  0  0
    4.6490    0.7280    0.0050 C   0  0  0  0  0
    6.0440    0.9890   -0.5710 C   0  0  0  0  0
   -0.0770    2.3020   -0.5460 C   0  0  0  0  0
   -1.4670    2.9710   -0.3770 C   0  0  0  0  0
    8.4030    1.4830    0.8170 N   0  0  0  0  0
    6.9520   -0.0700   -0.1120 N   0  0  0  0  0
    1.8470   -0.0440   -0.4910 N   0  0  0  0  0
   -1.7930    0.5980   -0.3370 N   0  0  0  0  0
   -4.2090   -2.0720    0.3600 N   0  0  0  0  0
   -1.9790   -1.5190   -0.9750 O   0  0  0  0  0
    7.2880   -2.1280    0.1580 H   0  0  0  0  0
    6.5720   -1.6810   -1.4100 H   0  0  0  0  0
    4.8430   -2.7140   -0.0150 H   0  0  0  0  0
    5.2000   -1.5860    1.3160 H   0  0  0  0  0
    4.1970   -0.7900   -1.4550 H   0  0  0  0  0
    2.5140   -1.9750   -0.0150 H   0  0  0  0  0
    2.7830   -0.7510    1.2480 H   0  0  0  0  0
   -0.4150    0.6620   -1.9300 H   0  0  0  0  0
   -2.0850    1.8160    1.3690 H   0  0  0  0  0
   -3.3440    1.9690    0.1070 H   0  0  0  0  0
   -3.9050   -0.1300    1.1000 H   0  0  0  0  0
   -4.5660    0.9900   -1.0490 H   0  0  0  0  0
   -4.8970   -0.6160   -1.7430 H   0  0  0  0  0
   -8.2170    1.9200    1.7280 H   0  0  0  0  0
   -6.7700   -1.9480   -0.9540 H   0  0  0  0  0
    8.7940   -1.6800    0.6860 H   0  0  0  0  0
    9.8890   -0.5230    1.2210 H   0  0  0  0  0
   -5.9800    1.9030    0.7010 H   0  0  0  0  0
   -9.7330    0.0050    1.4110 H   0  0  0  0  0
   -9.0080   -1.9300    0.0730 H   0  0  0  0  0
    3.9450    1.4520   -0.4050 H   0  0  0  0  0
    4.6800    0.8250    1.0900 H   0  0  0  0  0
    5.9970    0.9830   -1.6600 H   0  0  0  0  0
    6.4060    1.9580   -0.2270 H   0  0  0  0  0
    0.5000    2.3720    0.3770 H   0  0  0  0  0
    0.4680    2.7480   -1.3780 H   0  0  0  0  0
   -1.8930    3.2360   -1.3440 H   0  0  0  0  0
   -1.4030    3.8450    0.2730 H   0  0  0  0  0
    7.7410    2.1750    0.6620 H   0  0  0  0  0
    2.1600    0.5810   -1.1630 H   0  0  0  0  0
   -4.1820   -2.5850   -0.5080 H   0  0  0  0  0
   -3.6010   -2.4920    1.0470 H   0  0  0  0  0
  1  2  1  0  0  0
  1 30  1  0  0  0
  1 31  1  0  0  0
  2  3  1  0  0  0
  2 32  1  0  0  0
  2 33  1  0  0  0
  3  4  1  0  0  0
  3 34  1  0  0  0
  4 35  1  0  0  0
  4 36  1  0  0  0
  5 16  2  0  0  0
  6 27  1  0  0  0
  6  5  1  0  0  0
  6 22  1  0  0  0
  6 37  1  0  0  0
  7 23  1  0  0  0
  7 38  1  0  0  0
  7 39  1  0  0  0
  8  9  1  0  0  0
  8 27  1  0  0  0
  9 40  1  0  0  0
 10 11  1  0  0  0
 10  9  1  0  0  0
 10 41  1  0  0  0
 10 42  1  0  0  0
 11 17  2  0  0  0
 12 43  1  0  0  0
 13 19  2  0  0  0
 13 11  1  0  0  0
 13 44  1  0  0  0
 14 15  1  0  0  0
 14 45  1  0  0  0
 14 46  1  0  0  0
 15 25  1  0  0  0
 17 12  1  0  0  0
 17 47  1  0  0  0
 18 12  2  0  0  0
 18 48  1  0  0  0
 19 18  1  0  0  0
 19 49  1  0  0  0
 20  3  1  0  0  0
 20 50  1  0  0  0
 20 51  1  0  0  0
 21 20  1  0  0  0
 21 52  1  0  0  0
 21 53  1  0  0  0
 22 23  1  0  0  0
 22 54  1  0  0  0
 22 55  1  0  0  0
 23 56  1  0  0  0
 23 57  1  0  0  0
 24 15  2  0  0  0
 24 58  1  0  0  0
 25  1  1  0  0  0
 25 21  1  0  0  0
 26  4  1  0  0  0
 26  5  1  0  0  0
 26 59  1  0  0  0
 27  7  1  0  0  0
 28  9  1  0  0  0
 28 60  1  0  0  0
 28 61  1  0  0  0
 29  8  2  0  0  0
M  END
$$$$
