J5K
  CCTOOLS-0919241036

 52 54  0  0  1  0  0  0  0  0999 V2000
    7.5570   -1.1820    0.1380 C   0  0  0  0  0
    8.0580   -0.0300   -0.4400 C   0  0  0  0  0
    7.2490    1.0830   -0.5770 C   0  0  0  0  0
    1.0130    0.6210    0.1950 N   0  0  0  0  0
    5.9390    1.0430   -0.1380 C   0  0  0  0  0
    1.6650   -0.5580    0.2200 C   0  0  0  0  0
   -2.6350    0.0690   -0.0830 N   0  0  0  0  0
   -0.3850    0.8360    0.5990 C   0  0  0  0  0
   -1.3020    0.0230   -0.2770 C   0  0  0  0  0
   -3.5270   -0.7210   -0.9350 C   0  0  0  0  0
   -4.9560   -0.4940   -0.5130 C   0  0  0  0  0
   -8.8430    0.0180    0.7280 N   0  0  0  0  0
   -5.7020    0.5300   -1.0830 C   0  0  0  0  0
   -7.0090    0.7040   -0.6680 C   0  0  0  0  0
   -7.5310   -0.1470    0.3010 C   0  0  0  0  0
   -6.7880   -1.1120    0.8210 N   0  0  0  0  0
    1.0930   -1.5600    0.5960 O   0  0  0  0  0
    3.1050   -0.6320   -0.2180 C   0  0  0  0  0
    4.0100   -0.1510    0.9180 C   0  0  0  0  0
    5.4380   -0.1080    0.4390 C   0  0  0  0  0
    6.2470   -1.2210    0.5770 C   0  0  0  0  0
    3.4420   -2.0210   -0.5580 N   0  0  0  0  0
    1.5840    1.9100   -0.2360 C   0  0  0  0  0
    0.7250    2.9830    0.4790 C   0  0  0  0  0
   -0.6850    2.3400    0.4280 C   0  0  0  0  0
   -0.8420   -0.6720   -1.1580 O   0  0  0  0  0
   -5.5390   -1.3050    0.4400 C   0  0  0  0  0
    8.1870   -2.0530    0.2410 H   0  0  0  0  0
    9.0820    0.0010   -0.7830 H   0  0  0  0  0
    7.6410    1.9830   -1.0270 H   0  0  0  0  0
    5.3070    1.9130   -0.2450 H   0  0  0  0  0
   -3.0040    0.6250    0.6220 H   0  0  0  0  0
   -0.5170    0.5480    1.6420 H   0  0  0  0  0
   -3.4020   -0.4160   -1.9740 H   0  0  0  0  0
   -3.2830   -1.7790   -0.8350 H   0  0  0  0  0
   -9.3910    0.7230    0.3510 H   0  0  0  0  0
   -9.2110   -0.5730    1.4040 H   0  0  0  0  0
   -5.2700    1.1750   -1.8340 H   0  0  0  0  0
   -7.6170    1.4900   -1.0900 H   0  0  0  0  0
    3.2510    0.0020   -1.0930 H   0  0  0  0  0
    3.7010    0.8460    1.2300 H   0  0  0  0  0
    3.9290   -0.8370    1.7610 H   0  0  0  0  0
    5.8550   -2.1210    1.0290 H   0  0  0  0  0
    3.3150   -2.6290    0.2360 H   0  0  0  0  0
    2.9030   -2.3410   -1.3490 H   0  0  0  0  0
    2.6250    1.9870    0.0780 H   0  0  0  0  0
    1.5050    2.0170   -1.3180 H   0  0  0  0  0
    1.0510    3.1220    1.5090 H   0  0  0  0  0
    0.7450    3.9260   -0.0670 H   0  0  0  0  0
   -1.1640    2.5300   -0.5330 H   0  0  0  0  0
   -1.3030    2.7050    1.2470 H   0  0  0  0  0
   -4.9630   -2.1020    0.8860 H   0  0  0  0  0
  1 21  2  0  0  0
  1  2  1  0  0  0
  1 28  1  0  0  0
  2  3  2  0  0  0
  2 29  1  0  0  0
  3  5  1  0  0  0
  3 30  1  0  0  0
  4  6  1  0  0  0
  4 23  1  0  0  0
  5 31  1  0  0  0
  6 18  1  0  0  0
  7 10  1  0  0  0
  7 32  1  0  0  0
  8  4  1  0  0  0
  8 33  1  0  0  0
  9  8  1  0  0  0
  9  7  1  0  0  0
 10 34  1  0  0  0
 10 35  1  0  0  0
 11 13  1  0  0  0
 11 10  1  0  0  0
 12 15  1  0  0  0
 12 36  1  0  0  0
 12 37  1  0  0  0
 13 38  1  0  0  0
 14 13  2  0  0  0
 14 39  1  0  0  0
 15 14  1  0  0  0
 16 15  2  0  0  0
 16 27  1  0  0  0
 17  6  2  0  0  0
 18 22  1  0  0  0
 18 40  1  0  0  0
 19 18  1  0  0  0
 19 41  1  0  0  0
 19 42  1  0  0  0
 20 19  1  0  0  0
 20  5  2  0  0  0
 21 20  1  0  0  0
 21 43  1  0  0  0
 22 44  1  0  0  0
 22 45  1  0  0  0
 23 46  1  0  0  0
 23 47  1  0  0  0
 24 23  1  0  0  0
 24 48  1  0  0  0
 24 49  1  0  0  0
 25  8  1  0  0  0
 25 24  1  0  0  0
 25 50  1  0  0  0
 25 51  1  0  0  0
 26  9  2  0  0  0
 27 11  2  0  0  0
 27 52  1  0  0  0
M  END
$$$$
