K73
  CCTOOLS-0919241041

 56 58  0  0  1  0  0  0  0  0999 V2000
    9.1940    1.4130    0.2850 N   0  0  0  0  0
    8.3030    0.7100    1.2180 C   0  0  0  0  0
    0.4950   -0.4640   -1.6780 O   0  0  0  0  0
    6.9400    0.5580    0.5940 C   0  0  0  0  0
   -2.2820   -2.2740    0.3400 C   0  0  0  0  0
   -1.8020    0.1390   -0.1410 C   0  0  0  0  0
   -3.2540    0.4150   -0.4350 C   0  0  0  0  0
   -4.0290    0.5230    0.8800 C   0  0  0  0  0
   -5.4990    0.6760    0.5860 C   0  0  0  0  0
   -6.0440    1.9360    0.4230 C   0  0  0  0  0
   -7.3920    2.0760    0.1530 C   0  0  0  0  0
   -8.1960    0.9560    0.0460 C   0  0  0  0  0
   -7.6500   -0.3040    0.2080 C   0  0  0  0  0
   -6.3010   -0.4440    0.4730 C   0  0  0  0  0
    6.6480   -0.5590   -0.1650 C   0  0  0  0  0
    4.7300    1.3960    0.2120 C   0  0  0  0  0
    5.9800    1.5350    0.7850 C   0  0  0  0  0
    5.3970   -0.6980   -0.7380 C   0  0  0  0  0
    4.4390    0.2810   -0.5520 C   0  0  0  0  0
    3.0760    0.1300   -1.1780 C   0  0  0  0  0
    0.9100   -0.8200   -0.5950 C   0  0  0  0  0
   -0.0050   -1.5410    0.3610 C   0  0  0  0  0
   -0.0100   -3.0610    0.0600 C   0  0  0  0  0
   -1.3810   -3.4900    0.6450 C   0  0  0  0  0
    2.1880   -0.5710   -0.2480 N   0  0  0  0  0
   -1.4010   -1.1120    0.1590 N   0  0  0  0  0
   -3.3720    1.6760   -1.1780 N   0  0  0  0  0
   -0.9940    1.0430   -0.1750 O   0  0  0  0  0
   10.1150    1.5270    0.6800 H   0  0  0  0  0
    9.2380    0.9350   -0.6030 H   0  0  0  0  0
    8.7130   -0.2760    1.4390 H   0  0  0  0  0
    8.2190    1.2830    2.1410 H   0  0  0  0  0
   -2.8510   -2.4540   -0.5720 H   0  0  0  0  0
   -2.9630   -2.0970    1.1730 H   0  0  0  0  0
   -3.6640   -0.3990   -1.0330 H   0  0  0  0  0
   -3.8680   -0.3790    1.4720 H   0  0  0  0  0
   -3.6780    1.3910    1.4390 H   0  0  0  0  0
   -5.4160    2.8100    0.5070 H   0  0  0  0  0
   -7.8180    3.0600    0.0270 H   0  0  0  0  0
   -9.2490    1.0660   -0.1640 H   0  0  0  0  0
   -8.2780   -1.1790    0.1240 H   0  0  0  0  0
   -5.8740   -1.4290    0.5960 H   0  0  0  0  0
    7.3960   -1.3240   -0.3100 H   0  0  0  0  0
    3.9800    2.1580    0.3610 H   0  0  0  0  0
    6.2070    2.4060    1.3810 H   0  0  0  0  0
    5.1690   -1.5710   -1.3310 H   0  0  0  0  0
    2.6670    1.1160   -1.3980 H   0  0  0  0  0
    3.1620   -0.4430   -2.1010 H   0  0  0  0  0
    0.3030   -1.3580    1.3900 H   0  0  0  0  0
    0.0330   -3.2470   -1.0130 H   0  0  0  0  0
    0.8090   -3.5640    0.5750 H   0  0  0  0  0
   -1.3080   -3.6550    1.7190 H   0  0  0  0  0
   -1.7540   -4.3810    0.1400 H   0  0  0  0  0
    2.5190   -0.8560    0.6180 H   0  0  0  0  0
   -4.3300    1.8510   -1.4430 H   0  0  0  0  0
   -2.9980    2.4470   -0.6440 H   0  0  0  0  0
  1  2  1  0  0  0
  1 29  1  0  0  0
  1 30  1  0  0  0
  2 31  1  0  0  0
  2 32  1  0  0  0
  3 21  2  0  0  0
  4  2  1  0  0  0
  5 26  1  0  0  0
  5 33  1  0  0  0
  5 34  1  0  0  0
  6 28  2  0  0  0
  6  7  1  0  0  0
  7  8  1  0  0  0
  7 35  1  0  0  0
  8  9  1  0  0  0
  8 36  1  0  0  0
  8 37  1  0  0  0
  9 14  2  0  0  0
 10 11  2  0  0  0
 10  9  1  0  0  0
 10 38  1  0  0  0
 11 12  1  0  0  0
 11 39  1  0  0  0
 12 13  2  0  0  0
 12 40  1  0  0  0
 13 41  1  0  0  0
 14 13  1  0  0  0
 14 42  1  0  0  0
 15  4  2  0  0  0
 15 43  1  0  0  0
 16 17  2  0  0  0
 16 44  1  0  0  0
 17  4  1  0  0  0
 17 45  1  0  0  0
 18 15  1  0  0  0
 18 46  1  0  0  0
 19 18  2  0  0  0
 19 16  1  0  0  0
 20 25  1  0  0  0
 20 19  1  0  0  0
 20 47  1  0  0  0
 20 48  1  0  0  0
 21 25  1  0  0  0
 21 22  1  0  0  0
 22 26  1  0  0  0
 22 49  1  0  0  0
 23 24  1  0  0  0
 23 22  1  0  0  0
 23 50  1  0  0  0
 23 51  1  0  0  0
 24  5  1  0  0  0
 24 52  1  0  0  0
 24 53  1  0  0  0
 25 54  1  0  0  0
 26  6  1  0  0  0
 27  7  1  0  0  0
 27 55  1  0  0  0
 27 56  1  0  0  0
M  END
$$$$
