LXW
  CCTOOLS-0919241032

 60 63  0  0  1  0  0  0  0  0999 V2000
   -4.6050   -1.2760   -0.2650 C   0  0  0  0  0
   -6.0060   -0.8140    0.0450 C   0  0  0  0  0
   -6.5070   -0.8840    1.3360 C   0  0  0  0  0
   -0.0350    0.3780   -0.4860 N   0  0  0  0  0
   -7.7960   -0.4510    1.5820 C   0  0  0  0  0
   -8.1000    0.1110   -0.6310 C   0  0  0  0  0
   -3.6750   -0.1550   -0.1050 N   0  0  0  0  0
   -6.8220   -0.3030   -0.9530 C   0  0  0  0  0
   -1.7630    1.9460   -1.1550 C   0  0  0  0  0
   -0.3760    2.4690   -1.6070 C   0  0  0  0  0
    0.4570    1.1630   -1.6330 C   0  0  0  0  0
   -8.5460    0.0240    0.6070 N   0  0  0  0  0
    3.0800   -0.5200    0.6780 C   0  0  0  0  0
    3.1220    0.9870    0.6990 C   0  0  0  0  0
    3.0050    1.6640    1.8980 C   0  0  0  0  0
    2.0800   -2.4490   -0.4510 N   0  0  0  0  0
    2.0210   -0.9870   -0.3230 C   0  0  0  0  0
   -1.9440   -1.4240   -0.6670 O   0  0  0  0  0
    0.6550   -0.5790    0.1650 C   0  0  0  0  0
    3.0430    3.0460    1.9180 C   0  0  0  0  0
    3.1970    3.7500    0.7380 C   0  0  0  0  0
    3.3140    3.0720   -0.4610 C   0  0  0  0  0
    3.2830    1.6900   -0.4800 C   0  0  0  0  0
   -1.4010    0.8170   -0.1660 C   0  0  0  0  0
    4.4290   -1.0540    0.2680 C   0  0  0  0  0
    5.2270   -1.7000    1.1930 C   0  0  0  0  0
    6.4630   -2.1900    0.8170 C   0  0  0  0  0
    6.9030   -2.0330   -0.4840 C   0  0  0  0  0
    6.1050   -1.3860   -1.4090 C   0  0  0  0  0
    4.8650   -0.9020   -1.0350 C   0  0  0  0  0
   -2.3580   -0.3350   -0.3310 C   0  0  0  0  0
    0.1760   -1.1120    1.1430 O   0  0  0  0  0
   -4.3280   -2.0790    0.4180 H   0  0  0  0  0
   -4.5620   -1.6400   -1.2910 H   0  0  0  0  0
   -5.8980   -1.2730    2.1380 H   0  0  0  0  0
   -8.1940   -0.5030    2.5850 H   0  0  0  0  0
   -8.7440    0.5060   -1.4030 H   0  0  0  0  0
   -4.0060    0.7160    0.1640 H   0  0  0  0  0
   -6.4620   -0.2280   -1.9690 H   0  0  0  0  0
   -2.3270    2.7320   -0.6520 H   0  0  0  0  0
   -2.3220    1.5510   -2.0030 H   0  0  0  0  0
   -0.4310    2.9150   -2.6000 H   0  0  0  0  0
    0.0300    3.1760   -0.8840 H   0  0  0  0  0
    1.5170    1.3860   -1.5130 H   0  0  0  0  0
    0.2860    0.6220   -2.5640 H   0  0  0  0  0
    2.8300   -0.8910    1.6720 H   0  0  0  0  0
    2.8840    1.1140    2.8200 H   0  0  0  0  0
    2.9640   -2.7430   -0.8370 H   0  0  0  0  0
    1.9060   -2.8970    0.4370 H   0  0  0  0  0
    2.2120   -0.5290   -1.2940 H   0  0  0  0  0
    2.9510    3.5760    2.8550 H   0  0  0  0  0
    3.2220    4.8300    0.7530 H   0  0  0  0  0
    3.4350    3.6220   -1.3830 H   0  0  0  0  0
    3.3740    1.1610   -1.4170 H   0  0  0  0  0
   -1.4450    1.1920    0.8560 H   0  0  0  0  0
    4.8840   -1.8230    2.2100 H   0  0  0  0  0
    7.0870   -2.6950    1.5400 H   0  0  0  0  0
    7.8690   -2.4150   -0.7780 H   0  0  0  0  0
    6.4480   -1.2630   -2.4260 H   0  0  0  0  0
    4.2400   -0.4000   -1.7590 H   0  0  0  0  0
  1  2  1  0  0  0
  1 33  1  0  0  0
  1 34  1  0  0  0
  2  8  2  0  0  0
  2  3  1  0  0  0
  3  5  2  0  0  0
  3 35  1  0  0  0
  4 19  1  0  0  0
  5 12  1  0  0  0
  5 36  1  0  0  0
  6 12  2  0  0  0
  6 37  1  0  0  0
  7  1  1  0  0  0
  7 38  1  0  0  0
  8  6  1  0  0  0
  8 39  1  0  0  0
  9 10  1  0  0  0
  9 24  1  0  0  0
  9 40  1  0  0  0
  9 41  1  0  0  0
 10 11  1  0  0  0
 10 42  1  0  0  0
 10 43  1  0  0  0
 11  4  1  0  0  0
 11 44  1  0  0  0
 11 45  1  0  0  0
 13 25  1  0  0  0
 13 46  1  0  0  0
 14 13  1  0  0  0
 15 14  1  0  0  0
 15 47  1  0  0  0
 16 48  1  0  0  0
 16 49  1  0  0  0
 17 13  1  0  0  0
 17 16  1  0  0  0
 17 50  1  0  0  0
 18 31  2  0  0  0
 19 32  2  0  0  0
 19 17  1  0  0  0
 20 15  2  0  0  0
 20 51  1  0  0  0
 21 22  2  0  0  0
 21 20  1  0  0  0
 21 52  1  0  0  0
 22 23  1  0  0  0
 22 53  1  0  0  0
 23 14  2  0  0  0
 23 54  1  0  0  0
 24 31  1  0  0  0
 24  4  1  0  0  0
 24 55  1  0  0  0
 25 26  1  0  0  0
 26 27  2  0  0  0
 26 56  1  0  0  0
 27 57  1  0  0  0
 28 27  1  0  0  0
 28 58  1  0  0  0
 29 28  2  0  0  0
 29 59  1  0  0  0
 30 25  2  0  0  0
 30 29  1  0  0  0
 30 60  1  0  0  0
 31  7  1  0  0  0
M  END
$$$$
