M35
  CCTOOLS-0919241033

 57 60  0  0  0  0  0  0  0  0999 V2000
   -2.9650   -4.2950    0.2250 C   0  0  0  0  0
   -5.3440    3.7490    1.2350 F   0  0  0  0  0
   -3.5770   -0.1750    0.1040 N   0  0  0  0  0
    4.8670   -1.3750    1.0440 S   0  0  0  0  0
   -2.1760   -3.4570    0.9920 C   0  0  0  0  0
   -6.9040    2.2350    0.5320 F   0  0  0  0  0
   -2.3760   -2.0910    0.9540 C   0  0  0  0  0
   -5.7720    3.5010   -0.9960 F   0  0  0  0  0
   -5.9930   -5.0910   -0.6530 N   0  0  0  0  0
   -0.7460   -0.5870   -0.3420 O   0  0  0  0  0
   -3.3710   -1.5590    0.1450 C   0  0  0  0  0
    1.5040    3.4860    0.5970 F   0  0  0  0  0
    5.7860   -2.3310    1.5530 O   0  0  0  0  0
   -4.1620   -2.4030   -0.6250 C   0  0  0  0  0
   -0.3170    1.5920   -0.2670 N   0  0  0  0  0
    3.7720   -1.7730    0.2290 O   0  0  0  0  0
   -3.9560   -3.7680   -0.5820 C   0  0  0  0  0
   -4.8080    0.4820    0.2310 N   0  0  0  0  0
    1.0580    1.3680   -0.3810 C   0  0  0  0  0
   -1.1690    0.5480   -0.2310 C   0  0  0  0  0
    4.3070   -0.2640    2.3640 C   0  0  0  0  0
   -4.6090    1.7740    0.1440 C   0  0  0  0  0
   -5.6760    2.8340    0.2300 C   0  0  0  0  0
   -3.2480    2.0070   -0.0420 C   0  0  0  0  0
   -2.6110    0.7820   -0.0600 C   0  0  0  0  0
    3.3170    2.1130   -0.0540 C   0  0  0  0  0
    6.0210    1.4870   -1.5570 C   0  0  0  0  0
    3.7850    0.9230   -0.6090 C   0  0  0  0  0
    5.2440    0.6820   -0.7270 C   0  0  0  0  0
    2.8800   -0.0400   -1.0530 C   0  0  0  0  0
   -4.8100   -4.6840   -1.4220 C   0  0  0  0  0
    5.8420   -0.3520   -0.0080 C   0  0  0  0  0
    1.5240    0.1840   -0.9390 C   0  0  0  0  0
    7.3780    1.2580   -1.6630 C   0  0  0  0  0
    7.2000   -0.5720   -0.1220 C   0  0  0  0  0
    7.9680    0.2350   -0.9430 C   0  0  0  0  0
    1.9590    2.3330    0.0590 C   0  0  0  0  0
   -2.8030   -5.3620    0.2530 H   0  0  0  0  0
   -1.4030   -3.8720    1.6220 H   0  0  0  0  0
   -1.7610   -1.4380    1.5540 H   0  0  0  0  0
   -6.5100   -4.2860   -0.3310 H   0  0  0  0  0
   -6.5820   -5.7060   -1.1940 H   0  0  0  0  0
   -4.9360   -1.9920   -1.2560 H   0  0  0  0  0
   -0.6580    2.4980   -0.2130 H   0  0  0  0  0
    3.7240    0.5490    1.9320 H   0  0  0  0  0
    3.6900   -0.8200    3.0690 H   0  0  0  0  0
    5.1730    0.1470    2.8840 H   0  0  0  0  0
   -2.7760    2.9720   -0.1490 H   0  0  0  0  0
    4.0160    2.8610    0.2910 H   0  0  0  0  0
    5.5620    2.2870   -2.1190 H   0  0  0  0  0
    3.2410   -0.9620   -1.4840 H   0  0  0  0  0
   -4.2330   -5.5670   -1.6960 H   0  0  0  0  0
   -5.1250   -4.1610   -2.3240 H   0  0  0  0  0
    0.8240   -0.5620   -1.2840 H   0  0  0  0  0
    7.9810    1.8790   -2.3090 H   0  0  0  0  0
    7.6640   -1.3730    0.4340 H   0  0  0  0  0
    9.0300    0.0580   -1.0290 H   0  0  0  0  0
  1 17  1  0  0  0
  1 38  1  0  0  0
  3 11  1  0  0  0
  4 32  1  0  0  0
  5  1  2  0  0  0
  5 39  1  0  0  0
  6 23  1  0  0  0
  7  5  1  0  0  0
  7 11  2  0  0  0
  7 40  1  0  0  0
  8 23  1  0  0  0
  9 41  1  0  0  0
  9 42  1  0  0  0
 11 14  1  0  0  0
 12 37  1  0  0  0
 13  4  2  0  0  0
 14 17  2  0  0  0
 14 43  1  0  0  0
 15 19  1  0  0  0
 15 20  1  0  0  0
 15 44  1  0  0  0
 16  4  2  0  0  0
 17 31  1  0  0  0
 18  3  1  0  0  0
 19 33  1  0  0  0
 20 10  2  0  0  0
 21  4  1  0  0  0
 21 45  1  0  0  0
 21 46  1  0  0  0
 21 47  1  0  0  0
 22 18  2  0  0  0
 22 24  1  0  0  0
 23  2  1  0  0  0
 23 22  1  0  0  0
 24 25  2  0  0  0
 24 48  1  0  0  0
 25  3  1  0  0  0
 25 20  1  0  0  0
 26 28  2  0  0  0
 26 49  1  0  0  0
 27 34  1  0  0  0
 27 50  1  0  0  0
 28 30  1  0  0  0
 28 29  1  0  0  0
 29 27  2  0  0  0
 30 51  1  0  0  0
 31  9  1  0  0  0
 31 52  1  0  0  0
 31 53  1  0  0  0
 32 29  1  0  0  0
 32 35  2  0  0  0
 33 30  2  0  0  0
 33 54  1  0  0  0
 34 55  1  0  0  0
 35 36  1  0  0  0
 35 56  1  0  0  0
 36 34  2  0  0  0
 36 57  1  0  0  0
 37 19  2  0  0  0
 37 26  1  0  0  0
M  END
$$$$
