M6Q
  CCTOOLS-0919241033

 52 54  0  0  1  0  0  0  0  0999 V2000
    7.5540    1.0480    0.1270 C   0  0  0  0  0
    8.0140   -0.1980    0.5110 C   0  0  0  0  0
    7.1780   -1.2960    0.4390 C   0  0  0  0  0
    0.9750   -0.5470   -0.3840 N   0  0  0  0  0
    5.8810   -1.1480   -0.0160 C   0  0  0  0  0
    1.6540    0.6020   -0.1930 C   0  0  0  0  0
   -2.6590    0.0900   -0.1120 N   0  0  0  0  0
   -0.4170   -0.6530   -0.8450 C   0  0  0  0  0
   -1.3310    0.0610    0.1170 C   0  0  0  0  0
   -3.5480    0.7840    0.8240 C   0  0  0  0  0
   -4.9710    0.6690    0.3430 C   0  0  0  0  0
   -7.5570    0.4690   -0.5380 N   0  0  0  0  0
   -5.5100    1.6200   -0.5130 C   0  0  0  0  0
   -6.8180    1.4860   -0.9360 C   0  0  0  0  0
   -7.0780   -0.4610    0.2740 C   0  0  0  0  0
   -7.8920   -1.5170    0.6690 N   0  0  0  0  0
    3.4410    1.8640    0.8650 N   0  0  0  0  0
    3.0830    0.5630    0.2850 C   0  0  0  0  0
   -0.8720    0.6090    1.0970 O   0  0  0  0  0
    4.0070    0.2580   -0.8960 C   0  0  0  0  0
   -5.7690   -0.3890    0.7390 C   0  0  0  0  0
   -0.7710   -2.1550   -0.8900 C   0  0  0  0  0
    0.2570   -2.7830    0.0880 C   0  0  0  0  0
    1.5080   -1.9050   -0.1720 C   0  0  0  0  0
    5.4200    0.0970   -0.3990 C   0  0  0  0  0
    6.2580    1.1950   -0.3290 C   0  0  0  0  0
    1.1150    1.6670   -0.4050 O   0  0  0  0  0
    8.2070    1.9060    0.1870 H   0  0  0  0  0
    9.0280   -0.3130    0.8660 H   0  0  0  0  0
    7.5380   -2.2700    0.7380 H   0  0  0  0  0
    5.2270   -2.0070   -0.0720 H   0  0  0  0  0
   -3.0260   -0.3480   -0.8950 H   0  0  0  0  0
   -0.5120   -0.2170   -1.8400 H   0  0  0  0  0
   -3.4610    0.3310    1.8120 H   0  0  0  0  0
   -3.2670    1.8360    0.8800 H   0  0  0  0  0
   -4.9130    2.4570   -0.8450 H   0  0  0  0  0
   -7.2400    2.2240   -1.6020 H   0  0  0  0  0
   -8.8060   -1.5700    0.3500 H   0  0  0  0  0
   -7.5450   -2.2010    1.2630 H   0  0  0  0  0
    4.3730    1.8430    1.2500 H   0  0  0  0  0
    3.3480    2.6020    0.1830 H   0  0  0  0  0
    3.1920   -0.2150    1.0410 H   0  0  0  0  0
    3.6850   -0.6630   -1.3810 H   0  0  0  0  0
    3.9640    1.0790   -1.6110 H   0  0  0  0  0
   -5.3800   -1.1490    1.4010 H   0  0  0  0  0
   -1.7890   -2.3190   -0.5380 H   0  0  0  0  0
   -0.6410   -2.5540   -1.8960 H   0  0  0  0  0
   -0.0810   -2.6930    1.1200 H   0  0  0  0  0
    0.4520   -3.8250   -0.1680 H   0  0  0  0  0
    2.0390   -2.2530   -1.0590 H   0  0  0  0  0
    2.1680   -1.9190    0.6950 H   0  0  0  0  0
    5.8970    2.1690   -0.6240 H   0  0  0  0  0
  1 26  1  0  0  0
  1 28  1  0  0  0
  2  1  2  0  0  0
  2  3  1  0  0  0
  2 29  1  0  0  0
  3  5  2  0  0  0
  3 30  1  0  0  0
  4  6  1  0  0  0
  5 25  1  0  0  0
  5 31  1  0  0  0
  6 27  2  0  0  0
  6 18  1  0  0  0
  7 10  1  0  0  0
  7 32  1  0  0  0
  8  9  1  0  0  0
  8  4  1  0  0  0
  8 33  1  0  0  0
  9  7  1  0  0  0
 10 11  1  0  0  0
 10 34  1  0  0  0
 10 35  1  0  0  0
 11 21  2  0  0  0
 11 13  1  0  0  0
 13 14  2  0  0  0
 13 36  1  0  0  0
 14 12  1  0  0  0
 14 37  1  0  0  0
 15 16  1  0  0  0
 15 12  2  0  0  0
 16 38  1  0  0  0
 16 39  1  0  0  0
 17 40  1  0  0  0
 17 41  1  0  0  0
 18 20  1  0  0  0
 18 17  1  0  0  0
 18 42  1  0  0  0
 19  9  2  0  0  0
 20 43  1  0  0  0
 20 44  1  0  0  0
 21 15  1  0  0  0
 21 45  1  0  0  0
 22 23  1  0  0  0
 22  8  1  0  0  0
 22 46  1  0  0  0
 22 47  1  0  0  0
 23 24  1  0  0  0
 23 48  1  0  0  0
 23 49  1  0  0  0
 24  4  1  0  0  0
 24 50  1  0  0  0
 24 51  1  0  0  0
 25 20  1  0  0  0
 26 25  2  0  0  0
 26 52  1  0  0  0
M  END
$$$$
