MEL
  CCTOOLS-0919241034

 62 64  0  0  1  0  0  0  0  0999 V2000
    1.1170    0.0890   -4.5680 C   0  0  0  0  0
    2.2810    0.8940   -3.9870 C   0  0  0  0  0
    3.5120    0.7270   -4.8800 C   0  0  0  0  0
    3.8980   -0.7510   -4.9470 C   0  0  0  0  0
    2.7340   -1.5560   -5.5270 C   0  0  0  0  0
    1.5030   -1.3890   -4.6340 C   0  0  0  0  0
   -1.2670   -0.3980   -4.3040 N   0  0  0  0  0
   -0.1130    0.2550   -3.6740 C   0  0  0  0  0
    0.1510   -0.3750   -2.3320 C   0  0  0  0  0
   -0.0450   -1.5610   -2.1700 O   0  0  0  0  0
    0.6050    0.3770   -1.3110 N   0  0  0  0  0
    0.8890    0.1270    0.1150 C   0  0  0  0  0
   -0.2860    0.3810    1.0220 C   0  0  0  0  0
   -1.3520    0.7200    0.5520 O   0  0  0  0  0
   -0.1540    0.2310    2.3550 N   0  0  0  0  0
   -1.2980    0.4780    3.2360 C   0  0  0  0  0
   -0.8890    0.2420    4.6670 C   0  0  0  0  0
   -0.3790    1.2860    5.4190 C   0  0  0  0  0
   -0.0030    1.0760    6.7300 C   0  0  0  0  0
   -0.1390   -0.1900    7.2970 C   0  0  0  0  0
   -0.6480   -1.2390    6.5320 C   0  0  0  0  0
   -1.0260   -1.0160    5.2240 C   0  0  0  0  0
    0.2620   -0.4220    8.7030 C   0  0  0  0  0
    0.7420    0.5570    9.4140 N   0  0  0  0  0
    0.1270   -1.6750    9.2610 N   0  0  0  0  0
    1.8690    1.3110    0.0230 C   0  0  0  0  0
    1.0220    1.7890   -1.1700 C   0  0  0  0  0
   -1.8500    0.5770   -5.2350 C   0  0  0  0  0
   -3.1160    0.0130   -5.8270 C   0  0  0  0  0
   -3.8240    0.7350   -6.7100 O   0  0  0  0  0
   -3.4940   -1.0880   -5.5060 O   0  0  0  0  0
    0.8900    0.4510   -5.5710 H   0  0  0  0  0
    2.0070    1.9480   -3.9400 H   0  0  0  0  0
    2.5080    0.5320   -2.9840 H   0  0  0  0  0
    3.2850    1.0890   -5.8830 H   0  0  0  0  0
    4.3420    1.3010   -4.4670 H   0  0  0  0  0
    4.7750   -0.8690   -5.5830 H   0  0  0  0  0
    4.1250   -1.1120   -3.9440 H   0  0  0  0  0
    2.5060   -1.1940   -6.5300 H   0  0  0  0  0
    3.0080   -2.6100   -5.5750 H   0  0  0  0  0
    1.7300   -1.7510   -3.6310 H   0  0  0  0  0
    0.6730   -1.9630   -5.0480 H   0  0  0  0  0
   -0.9020   -1.1520   -4.8660 H   0  0  0  0  0
   -0.3250    1.3160   -3.5420 H   0  0  0  0  0
    1.3740   -0.8290    0.3050 H   0  0  0  0  0
    0.6970   -0.0390    2.7300 H   0  0  0  0  0
   -2.1110   -0.1980    2.9740 H   0  0  0  0  0
   -1.6310    1.5090    3.1190 H   0  0  0  0  0
   -0.2750    2.2660    4.9790 H   0  0  0  0  0
    0.3940    1.8910    7.3160 H   0  0  0  0  0
   -0.7550   -2.2230    6.9660 H   0  0  0  0  0
   -1.4240   -1.8270    4.6320 H   0  0  0  0  0
    0.8370    1.4390    9.0210 H   0  0  0  0  0
    0.3900   -1.8270   10.1820 H   0  0  0  0  0
   -0.2340   -2.4040    8.7330 H   0  0  0  0  0
    1.8310    1.9800    0.8830 H   0  0  0  0  0
    2.8840    1.0210   -0.2470 H   0  0  0  0  0
    0.2100    2.4610   -0.8920 H   0  0  0  0  0
    1.6140    2.1590   -2.0080 H   0  0  0  0  0
   -2.0780    1.4980   -4.6990 H   0  0  0  0  0
   -1.1390    0.7880   -6.0330 H   0  0  0  0  0
   -4.6360    0.3730   -7.0890 H   0  0  0  0  0
  1  2  1  0  0  0
  1  6  1  0  0  0
  1  8  1  0  0  0
  1 32  1  0  0  0
  2  3  1  0  0  0
  2 33  1  0  0  0
  2 34  1  0  0  0
  3  4  1  0  0  0
  3 35  1  0  0  0
  3 36  1  0  0  0
  4  5  1  0  0  0
  4 37  1  0  0  0
  4 38  1  0  0  0
  5  6  1  0  0  0
  5 39  1  0  0  0
  5 40  1  0  0  0
  6 41  1  0  0  0
  6 42  1  0  0  0
  7  8  1  0  0  0
  7 28  1  0  0  0
  7 43  1  0  0  0
  8  9  1  0  0  0
  8 44  1  0  0  0
  9 10  2  0  0  0
  9 11  1  0  0  0
 11 12  1  0  0  0
 11 27  1  0  0  0
 12 13  1  0  0  0
 12 26  1  0  0  0
 12 45  1  0  0  0
 13 14  2  0  0  0
 13 15  1  0  0  0
 15 16  1  0  0  0
 15 46  1  0  0  0
 16 17  1  0  0  0
 16 47  1  0  0  0
 16 48  1  0  0  0
 17 18  2  0  0  0
 17 22  1  0  0  0
 18 19  1  0  0  0
 18 49  1  0  0  0
 19 20  2  0  0  0
 19 50  1  0  0  0
 20 21  1  0  0  0
 20 23  1  0  0  0
 21 22  2  0  0  0
 21 51  1  0  0  0
 22 52  1  0  0  0
 23 24  2  0  0  0
 23 25  1  0  0  0
 24 53  1  0  0  0
 25 54  1  0  0  0
 25 55  1  0  0  0
 26 27  1  0  0  0
 26 56  1  0  0  0
 26 57  1  0  0  0
 27 58  1  0  0  0
 27 59  1  0  0  0
 28 29  1  0  0  0
 28 60  1  0  0  0
 28 61  1  0  0  0
 29 30  1  0  0  0
 29 31  2  0  0  0
 30 62  1  0  0  0
M  END
$$$$
