MID
  CCTOOLS-0919241034

 68 71  0  0  1  0  0  0  0  0999 V2000
   -3.1100   -1.3970   -1.6870 S   0  0  0  0  0
   -2.6760   -2.6790   -1.2520 O   0  0  0  0  0
   -3.6670   -1.1600   -2.9720 O   0  0  0  0  0
   -5.2360    0.0710   -0.8860 C   0  0  0  0  0
   -4.3100   -0.8550   -0.5160 C   0  0  0  0  0
   -4.2960   -1.3800    0.7740 C   0  0  0  0  0
   -5.2090   -0.9830    1.7020 C   0  0  0  0  0
   -7.1390    0.4070    2.2890 C   0  0  0  0  0
   -8.0650    1.3340    1.9190 C   0  0  0  0  0
   -8.0780    1.8600    0.6290 C   0  0  0  0  0
   -7.1660    1.4610   -0.3000 C   0  0  0  0  0
   -6.1940    0.5070    0.0450 C   0  0  0  0  0
   -6.1810   -0.0280    1.3570 C   0  0  0  0  0
   -1.8020   -0.3900   -1.5520 N   0  0  0  0  0
   -1.0190   -0.3690   -0.3140 C   0  0  0  0  0
    0.2950    0.3260   -0.5630 C   0  0  0  0  0
    0.5520    0.7610   -1.6660 O   0  0  0  0  0
    1.1850    0.4640    0.4400 N   0  0  0  0  0
    2.4620    1.1400    0.1980 C   0  0  0  0  0
    2.2790    2.6280    0.3480 C   0  0  0  0  0
    1.3360    3.0630    0.9750 O   0  0  0  0  0
    3.4990    0.6480    1.2100 C   0  0  0  0  0
    3.7800   -0.8130    0.9720 C   0  0  0  0  0
    4.7890   -1.1880    0.1040 C   0  0  0  0  0
    3.0310   -1.7740    1.6280 C   0  0  0  0  0
    5.0510   -2.5240   -0.1180 C   0  0  0  0  0
    3.2840   -3.1140    1.4140 C   0  0  0  0  0
    4.2970   -3.4980    0.5360 C   0  0  0  0  0
    4.5730   -4.9340    0.3020 C   0  0  0  0  0
    5.5220   -5.2900   -0.5160 N   0  0  0  0  0
    3.8260   -5.8930    0.9490 N   0  0  0  0  0
    3.1640    3.4760   -0.2130 N   0  0  0  0  0
    3.0620    4.9240    0.0150 C   0  0  0  0  0
    4.4090    5.4370    0.5330 C   0  0  0  0  0
    5.5150    5.0310   -0.4430 C   0  0  0  0  0
    5.5830    3.5050   -0.5340 C   0  0  0  0  0
    4.2530    2.9690   -1.0600 C   0  0  0  0  0
   -5.2320    0.4730   -1.8890 H   0  0  0  0  0
   -3.5500   -2.1140    1.0420 H   0  0  0  0  0
   -5.1870   -1.4000    2.6980 H   0  0  0  0  0
   -7.1400    0.0090    3.2920 H   0  0  0  0  0
   -8.8000    1.6660    2.6370 H   0  0  0  0  0
   -8.8230    2.5940    0.3610 H   0  0  0  0  0
   -7.1890    1.8770   -1.2960 H   0  0  0  0  0
   -1.5550    0.1860   -2.2920 H   0  0  0  0  0
   -1.5720    0.1660    0.4570 H   0  0  0  0  0
   -0.8320   -1.3910    0.0150 H   0  0  0  0  0
    0.9800    0.1160    1.3220 H   0  0  0  0  0
    2.8060    0.9160   -0.8120 H   0  0  0  0  0
    4.4200    1.2190    1.0930 H   0  0  0  0  0
    3.1130    0.7840    2.2210 H   0  0  0  0  0
    5.3730   -0.4330   -0.4020 H   0  0  0  0  0
    2.2470   -1.4750    2.3080 H   0  0  0  0  0
    5.8400   -2.8160   -0.7970 H   0  0  0  0  0
    2.6990   -3.8630    1.9270 H   0  0  0  0  0
    5.7030   -6.2300   -0.6690 H   0  0  0  0  0
    3.1180   -5.6280    1.5580 H   0  0  0  0  0
    4.0060   -6.8340    0.7960 H   0  0  0  0  0
    2.8160    5.4240   -0.9210 H   0  0  0  0  0
    2.2860    5.1230    0.7540 H   0  0  0  0  0
    4.3770    6.5240    0.6150 H   0  0  0  0  0
    4.6110    5.0040    1.5130 H   0  0  0  0  0
    5.3000    5.4440   -1.4290 H   0  0  0  0  0
    6.4710    5.4170   -0.0890 H   0  0  0  0  0
    6.3860    3.2160   -1.2120 H   0  0  0  0  0
    5.7740    3.0900    0.4550 H   0  0  0  0  0
    4.2620    1.8790   -1.0300 H   0  0  0  0  0
    4.1050    3.3070   -2.0860 H   0  0  0  0  0
  1  2  2  0  0  0
  1  3  2  0  0  0
  1  5  1  0  0  0
  1 14  1  0  0  0
  4  5  2  0  0  0
  4 12  1  0  0  0
  4 38  1  0  0  0
  5  6  1  0  0  0
  6  7  2  0  0  0
  6 39  1  0  0  0
  7 13  1  0  0  0
  7 40  1  0  0  0
  8  9  2  0  0  0
  8 13  1  0  0  0
  8 41  1  0  0  0
  9 10  1  0  0  0
  9 42  1  0  0  0
 10 11  2  0  0  0
 10 43  1  0  0  0
 11 12  1  0  0  0
 11 44  1  0  0  0
 12 13  2  0  0  0
 14 15  1  0  0  0
 14 45  1  0  0  0
 15 16  1  0  0  0
 15 46  1  0  0  0
 15 47  1  0  0  0
 16 17  2  0  0  0
 16 18  1  0  0  0
 18 19  1  0  0  0
 18 48  1  0  0  0
 19 20  1  0  0  0
 19 22  1  0  0  0
 19 49  1  0  0  0
 20 21  2  0  0  0
 20 32  1  0  0  0
 22 23  1  0  0  0
 22 50  1  0  0  0
 22 51  1  0  0  0
 23 24  2  0  0  0
 23 25  1  0  0  0
 24 26  1  0  0  0
 24 52  1  0  0  0
 25 27  2  0  0  0
 25 53  1  0  0  0
 26 28  2  0  0  0
 26 54  1  0  0  0
 27 28  1  0  0  0
 27 55  1  0  0  0
 28 29  1  0  0  0
 29 30  2  0  0  0
 29 31  1  0  0  0
 30 56  1  0  0  0
 31 57  1  0  0  0
 31 58  1  0  0  0
 32 33  1  0  0  0
 32 37  1  0  0  0
 33 34  1  0  0  0
 33 59  1  0  0  0
 33 60  1  0  0  0
 34 35  1  0  0  0
 34 61  1  0  0  0
 34 62  1  0  0  0
 35 36  1  0  0  0
 35 63  1  0  0  0
 35 64  1  0  0  0
 36 37  1  0  0  0
 36 65  1  0  0  0
 36 66  1  0  0  0
 37 67  1  0  0  0
 37 68  1  0  0  0
M  END
$$$$
