MXH
  CCTOOLS-0919241036

 87 90  0  0  1  0  0  0  0  0999 V2000
   -0.2780    1.5460   -0.6250 C   0  0  0  0  0
   -0.9980    2.8960   -0.6290 C   0  0  0  0  0
    0.7660    4.6660   -0.5460 C   0  0  0  0  0
    2.1590   -0.7000    2.7080 C   0  0  0  0  0
    3.5780   -1.6470    1.0180 C   0  0  0  0  0
   -2.0820   -0.1370   -0.7990 N   0  0  0  0  0
   -1.0880    0.5420   -1.4050 C   0  0  0  0  0
   -0.8450    0.3460   -2.5760 O   0  0  0  0  0
   -2.4670    0.1740    0.5840 C   0  0  0  0  0
   -2.8060   -1.1980   -1.5130 C   0  0  0  0  0
   -0.1720    3.9080    0.1230 C   0  0  0  0  0
    1.5320    5.5980    0.1530 C   0  0  0  0  0
    2.5410    6.4160   -0.5590 C   0  0  0  0  0
    1.3450    5.7580    1.5260 C   0  0  0  0  0
    0.4040    4.9930    2.1840 C   0  0  0  0  0
   -0.3580    4.0740    1.4850 C   0  0  0  0  0
   -3.9720    0.4560    0.6260 C   0  0  0  0  0
    2.6070    0.5240    0.6940 C   0  0  0  0  0
    1.9860    0.4280    1.9260 C   0  0  0  0  0
    2.9540   -1.7370    2.2610 C   0  0  0  0  0
    4.4330   -2.7590    0.5330 C   0  0  0  0  0
    5.0610   -2.6670   -0.7080 C   0  0  0  0  0
    5.8560   -3.7020   -1.1560 C   0  0  0  0  0
    6.0300   -4.8310   -0.3770 C   0  0  0  0  0
    6.9000   -5.9580   -0.8710 C   0  0  0  0  0
   -4.7260   -0.7270    0.0140 C   0  0  0  0  0
    5.4090   -4.9290    0.8580 C   0  0  0  0  0
    4.6150   -3.8950    1.3170 C   0  0  0  0  0
    3.3950   -0.5110    0.2330 C   0  0  0  0  0
   -7.0330   -1.5080    0.0910 C   0  0  0  0  0
   -9.3000   -2.3990    0.1620 C   0  0  0  0  0
   -9.1280   -3.2180   -1.1190 C   0  0  0  0  0
  -10.7310   -1.8650    0.2380 C   0  0  0  0  0
   -9.0220   -3.2870    1.3770 C   0  0  0  0  0
   -4.3070   -0.9000   -1.4470 C   0  0  0  0  0
    5.5820   -6.0350    1.6150 F   0  0  0  0  0
   -6.1680   -0.4750    0.0830 N   0  0  0  0  0
   -8.3590   -1.2760    0.1540 N   0  0  0  0  0
    3.2970    7.3360    0.1340 N   0  0  0  0  0
    2.7130    6.2650   -1.8420 N   0  0  0  0  0
    1.0420    1.6940   -1.2440 N   0  0  0  0  0
   -6.6170   -2.6490    0.0410 O   0  0  0  0  0
    7.4250   -5.6250   -2.1570 O   0  0  0  0  0
    2.0290    3.0130    0.5940 O   0  0  0  0  0
    3.4870    2.0250   -1.1800 O   0  0  0  0  0
    2.3750    1.9620   -0.2980 S   0  0  0  0  0
   -0.1610    1.2000    0.4020 H   0  0  0  0  0
   -1.1350    3.2320   -1.6570 H   0  0  0  0  0
   -1.9700    2.7910   -0.1490 H   0  0  0  0  0
    0.9090    4.5350   -1.6080 H   0  0  0  0  0
    1.6760   -0.7680    3.6710 H   0  0  0  0  0
   -2.2370   -0.6760    1.2270 H   0  0  0  0  0
   -1.9210    1.0530    0.9270 H   0  0  0  0  0
   -2.4840   -1.2240   -2.5530 H   0  0  0  0  0
   -2.6040   -2.1590   -1.0410 H   0  0  0  0  0
    1.9360    6.4770    2.0720 H   0  0  0  0  0
    0.2580    5.1150    3.2470 H   0  0  0  0  0
   -1.0930    3.4790    2.0040 H   0  0  0  0  0
   -4.2880    0.5940    1.6600 H   0  0  0  0  0
   -4.1890    1.3600    0.0560 H   0  0  0  0  0
    1.3630    1.2360    2.2800 H   0  0  0  0  0
    3.0920   -2.6150    2.8740 H   0  0  0  0  0
    4.9260   -1.7860   -1.3180 H   0  0  0  0  0
    6.3430   -3.6310   -2.1180 H   0  0  0  0  0
    7.7210   -6.1170   -0.1730 H   0  0  0  0  0
    6.3060   -6.8690   -0.9460 H   0  0  0  0  0
   -4.4900   -1.6340    0.5700 H   0  0  0  0  0
    4.1330   -3.9700    2.2810 H   0  0  0  0  0
    3.8790   -0.4350   -0.7290 H   0  0  0  0  0
   -9.8280   -4.0540   -1.1120 H   0  0  0  0  0
   -9.3260   -2.5850   -1.9840 H   0  0  0  0  0
   -8.1080   -3.5990   -1.1730 H   0  0  0  0  0
  -10.8540   -1.2820    1.1500 H   0  0  0  0  0
  -10.9290   -1.2320   -0.6270 H   0  0  0  0  0
  -11.4310   -2.7010    0.2440 H   0  0  0  0  0
   -8.0020   -3.6680    1.3230 H   0  0  0  0  0
   -9.1440   -2.7040    2.2890 H   0  0  0  0  0
   -9.7220   -4.1230    1.3830 H   0  0  0  0  0
   -4.5210    0.0160   -1.9980 H   0  0  0  0  0
   -4.8620   -1.7280   -1.8890 H   0  0  0  0  0
   -6.4990    0.4360    0.1220 H   0  0  0  0  0
   -8.6910   -0.3650    0.1930 H   0  0  0  0  0
    3.1680    7.4480    1.0890 H   0  0  0  0  0
    3.9570    7.8710   -0.3330 H   0  0  0  0  0
    2.1810    5.6170   -2.3300 H   0  0  0  0  0
    1.1350    1.6360   -2.2080 H   0  0  0  0  0
    7.9960   -6.3070   -2.5380 H   0  0  0  0  0
  1  7  1  0  0  0
  1 41  1  0  0  0
  1 47  1  0  0  0
  2  1  1  0  0  0
  2 48  1  0  0  0
  2 49  1  0  0  0
  3 11  2  0  0  0
  3 50  1  0  0  0
  4 20  1  0  0  0
  4 51  1  0  0  0
  5 21  1  0  0  0
  5 20  2  0  0  0
  6 10  1  0  0  0
  6  9  1  0  0  0
  7  8  2  0  0  0
  7  6  1  0  0  0
  9 17  1  0  0  0
  9 52  1  0  0  0
  9 53  1  0  0  0
 10 35  1  0  0  0
 10 54  1  0  0  0
 10 55  1  0  0  0
 11  2  1  0  0  0
 12  3  1  0  0  0
 13 39  1  0  0  0
 13 12  1  0  0  0
 14 12  2  0  0  0
 14 15  1  0  0  0
 14 56  1  0  0  0
 15 16  2  0  0  0
 15 57  1  0  0  0
 16 11  1  0  0  0
 16 58  1  0  0  0
 17 26  1  0  0  0
 17 59  1  0  0  0
 17 60  1  0  0  0
 18 29  2  0  0  0
 18 19  1  0  0  0
 19  4  2  0  0  0
 19 61  1  0  0  0
 20 62  1  0  0  0
 21 28  2  0  0  0
 22 23  2  0  0  0
 22 21  1  0  0  0
 22 63  1  0  0  0
 23 24  1  0  0  0
 23 64  1  0  0  0
 24 25  1  0  0  0
 24 27  2  0  0  0
 25 43  1  0  0  0
 25 65  1  0  0  0
 25 66  1  0  0  0
 26 37  1  0  0  0
 26 67  1  0  0  0
 27 36  1  0  0  0
 28 27  1  0  0  0
 28 68  1  0  0  0
 29  5  1  0  0  0
 29 69  1  0  0  0
 30 38  1  0  0  0
 31 34  1  0  0  0
 32 31  1  0  0  0
 32 70  1  0  0  0
 32 71  1  0  0  0
 32 72  1  0  0  0
 33 31  1  0  0  0
 33 73  1  0  0  0
 33 74  1  0  0  0
 33 75  1  0  0  0
 34 76  1  0  0  0
 34 77  1  0  0  0
 34 78  1  0  0  0
 35 26  1  0  0  0
 35 79  1  0  0  0
 35 80  1  0  0  0
 37 30  1  0  0  0
 37 81  1  0  0  0
 38 31  1  0  0  0
 38 82  1  0  0  0
 39 83  1  0  0  0
 39 84  1  0  0  0
 40 13  2  0  0  0
 40 85  1  0  0  0
 41 46  1  0  0  0
 41 86  1  0  0  0
 42 30  2  0  0  0
 43 87  1  0  0  0
 45 46  2  0  0  0
 46 44  2  0  0  0
 46 18  1  0  0  0
M  END
$$$$
