MZE
  CCTOOLS-0919241037

 88 91  0  0  1  0  0  0  0  0999 V2000
    5.3960   -1.5050    0.5660 C   0  0  0  0  0
    1.6190   -3.8430   -0.3250 C   0  0  0  0  0
   -0.7300   -3.2120   -0.5980 C   0  0  0  0  0
   -2.6490   -2.8350    0.9270 C   0  0  0  0  0
   -3.6830   -0.8630    2.0630 C   0  0  0  0  0
   -1.0220    1.3660   -3.9710 C   0  0  0  0  0
   -0.4540    2.1880   -3.0190 C   0  0  0  0  0
   -0.8460    2.0820   -1.6870 C   0  0  0  0  0
   -0.6330    2.8580    0.6740 C   0  0  0  0  0
    0.8870    4.6080    1.2760 C   0  0  0  0  0
   -0.0700    3.6770    1.6320 C   0  0  0  0  0
   -1.9790    0.4370   -3.6040 C   0  0  0  0  0
   -0.2400    2.9650   -0.6590 C   0  0  0  0  0
    0.7230    3.9000   -1.0250 C   0  0  0  0  0
   -2.3720    0.3270   -2.2820 C   0  0  0  0  0
    1.2890    4.7240   -0.0550 C   0  0  0  0  0
   -4.6290    1.1160    3.2470 C   0  0  0  0  0
   -5.0540   -2.2050    0.6300 C   0  0  0  0  0
   -3.8280   -1.9420    1.2150 C   0  0  0  0  0
   -1.8930   -2.3030   -0.2930 C   0  0  0  0  0
    0.5690   -2.0580    1.1260 C   0  0  0  0  0
   -6.0090   -0.3110    1.7410 C   0  0  0  0  0
    7.8060   -1.1460    0.5980 C   0  0  0  0  0
    2.8740    6.5360    0.5250 N   0  0  0  0  0
   -2.7960   -2.2600   -1.4460 N   0  0  0  0  0
    6.4420   -0.6910    0.3200 N   0  0  0  0  0
    5.5850   -2.6160    1.0230 O   0  0  0  0  0
   -6.1400   -1.3900    0.8900 C   0  0  0  0  0
   -4.7770   -0.0400    2.3340 C   0  0  0  0  0
    2.3150    5.7220   -0.4360 C   0  0  0  0  0
   -1.8110    1.1450   -1.3220 C   0  0  0  0  0
    1.7480   -1.1310    0.8120 C   0  0  0  0  0
    3.0050   -1.9720    0.5780 C   0  0  0  0  0
    2.7860   -2.8960   -0.6220 C   0  0  0  0  0
    4.1410   -1.0860    0.3100 N   0  0  0  0  0
    0.4430   -3.0440    0.0440 N   0  0  0  0  0
   -5.7110    1.9270    3.5120 N   0  0  0  0  0
   -3.4760    1.3670    3.7990 N   0  0  0  0  0
    2.6890    5.8290   -1.6790 N   0  0  0  0  0
   -0.8500   -4.0940   -1.4220 O   0  0  0  0  0
   -4.1720   -0.3890   -0.6130 O   0  0  0  0  0
   -4.3490   -1.1290   -2.9940 O   0  0  0  0  0
   -3.5920   -0.8580   -1.8230 S   0  0  0  0  0
    1.3950   -4.4360   -1.2120 H   0  0  0  0  0
    1.8840   -4.5050    0.4990 H   0  0  0  0  0
   -1.9830   -2.8480    1.7890 H   0  0  0  0  0
   -3.0010   -3.8460    0.7240 H   0  0  0  0  0
   -2.7260   -0.6580    2.5200 H   0  0  0  0  0
   -0.7230    1.4500   -5.0050 H   0  0  0  0  0
    0.2940    2.9130   -3.3070 H   0  0  0  0  0
   -1.3780    2.1290    0.9590 H   0  0  0  0  0
    1.3240    5.2470    2.0290 H   0  0  0  0  0
   -0.3780    3.5910    2.6630 H   0  0  0  0  0
   -2.4210   -0.2050   -4.3520 H   0  0  0  0  0
    1.0310    3.9860   -2.0560 H   0  0  0  0  0
   -5.1620   -3.0500   -0.0340 H   0  0  0  0  0
   -1.5250   -1.2990   -0.0820 H   0  0  0  0  0
    0.7500   -2.5730    2.0690 H   0  0  0  0  0
   -0.3480   -1.4750    1.1980 H   0  0  0  0  0
   -6.8590    0.3230    1.9460 H   0  0  0  0  0
    2.5950    6.4570    1.4500 H   0  0  0  0  0
    3.5460    7.1900    0.2750 H   0  0  0  0  0
   -2.9270   -3.0530   -1.9890 H   0  0  0  0  0
    6.2910    0.1970   -0.0410 H   0  0  0  0  0
   -7.0950   -1.6000    0.4300 H   0  0  0  0  0
   -2.1190    1.0590   -0.2910 H   0  0  0  0  0
    1.5260   -0.5500   -0.0830 H   0  0  0  0  0
    1.9130   -0.4560    1.6520 H   0  0  0  0  0
    3.2120   -2.5700    1.4640 H   0  0  0  0  0
    3.6900   -3.4780   -0.8030 H   0  0  0  0  0
    2.5540   -2.2990   -1.5040 H   0  0  0  0  0
    3.9900   -0.1990   -0.0510 H   0  0  0  0  0
   -5.6140    2.6840    4.1110 H   0  0  0  0  0
   -6.5690    1.7400    3.1010 H   0  0  0  0  0
   -3.3800    2.1240    4.3980 H   0  0  0  0  0
    3.3610    6.4830   -1.9280 H   0  0  0  0  0
    8.1070   -2.3940   -0.2340 C   0  0  0  0  0
    8.7970   -0.0390    0.2330 C   0  0  0  0  0
    7.9400   -1.4800    2.0850 C   0  0  0  0  0
    8.0120   -2.1570   -1.2930 H   0  0  0  0  0
    9.1220   -2.7330   -0.0270 H   0  0  0  0  0
    7.4000   -3.1830    0.0260 H   0  0  0  0  0
    8.5830    0.8500    0.8250 H   0  0  0  0  0
    9.8130   -0.3780    0.4400 H   0  0  0  0  0
    8.7020    0.1990   -0.8270 H   0  0  0  0  0
    7.2330   -2.2680    2.3450 H   0  0  0  0  0
    8.9550   -1.8180    2.2920 H   0  0  0  0  0
    7.7260   -0.5900    2.6780 H   0  0  0  0  0
  1 35  1  0  0  0
  2 36  1  0  0  0
  2 44  1  0  0  0
  2 45  1  0  0  0
  3 20  1  0  0  0
  3 40  2  0  0  0
  4 20  1  0  0  0
  4 46  1  0  0  0
  4 47  1  0  0  0
  5 48  1  0  0  0
  6 12  2  0  0  0
  6  7  1  0  0  0
  6 49  1  0  0  0
  7  8  2  0  0  0
  7 50  1  0  0  0
  8 31  1  0  0  0
  8 13  1  0  0  0
  9 11  2  0  0  0
  9 13  1  0  0  0
  9 51  1  0  0  0
 10 16  2  0  0  0
 10 52  1  0  0  0
 11 10  1  0  0  0
 11 53  1  0  0  0
 12 15  1  0  0  0
 12 54  1  0  0  0
 13 14  2  0  0  0
 14 16  1  0  0  0
 14 55  1  0  0  0
 15 31  2  0  0  0
 15 43  1  0  0  0
 16 30  1  0  0  0
 17 38  2  0  0  0
 18 19  1  0  0  0
 18 56  1  0  0  0
 19  4  1  0  0  0
 19  5  2  0  0  0
 20 25  1  0  0  0
 20 57  1  0  0  0
 21 36  1  0  0  0
 21 58  1  0  0  0
 21 59  1  0  0  0
 22 29  2  0  0  0
 22 60  1  0  0  0
 23 26  1  0  0  0
 23 77  1  0  0  0
 23 78  1  0  0  0
 23 79  1  0  0  0
 24 61  1  0  0  0
 24 62  1  0  0  0
 25 43  1  0  0  0
 25 63  1  0  0  0
 26  1  1  0  0  0
 26 64  1  0  0  0
 27  1  2  0  0  0
 28 18  2  0  0  0
 28 22  1  0  0  0
 28 65  1  0  0  0
 29  5  1  0  0  0
 29 17  1  0  0  0
 30 24  1  0  0  0
 30 39  2  0  0  0
 31 66  1  0  0  0
 32 21  1  0  0  0
 32 67  1  0  0  0
 32 68  1  0  0  0
 33 32  1  0  0  0
 33 34  1  0  0  0
 33 69  1  0  0  0
 34  2  1  0  0  0
 34 70  1  0  0  0
 34 71  1  0  0  0
 35 33  1  0  0  0
 35 72  1  0  0  0
 36  3  1  0  0  0
 37 17  1  0  0  0
 37 73  1  0  0  0
 37 74  1  0  0  0
 38 75  1  0  0  0
 39 76  1  0  0  0
 42 43  2  0  0  0
 43 41  2  0  0  0
 77 80  1  0  0  0
 77 81  1  0  0  0
 77 82  1  0  0  0
 78 83  1  0  0  0
 78 84  1  0  0  0
 78 85  1  0  0  0
 79 86  1  0  0  0
 79 87  1  0  0  0
 79 88  1  0  0  0
M  END
$$$$
