PMJ
  CCTOOLS-0919241033

 68 69  0  0  1  0  0  0  0  0999 V2000
    4.6880    1.3140    0.3520 C   0  0  0  0  0
    3.7040    1.6650   -1.1320 S   0  0  0  0  0
    5.5400    2.5120    0.6840 C   0  0  0  0  0
    6.8100    2.6270    0.1510 C   0  0  0  0  0
    7.5890    3.7280    0.4520 C   0  0  0  0  0
    7.1030    4.7090    1.2960 C   0  0  0  0  0
    5.8330    4.5950    1.8290 C   0  0  0  0  0
    5.0510    3.4960    1.5230 C   0  0  0  0  0
    4.5510    1.8730   -2.2540 O   0  0  0  0  0
    2.6530    2.5720   -0.8290 O   0  0  0  0  0
    2.9310    0.2390   -1.4610 N   0  0  0  0  0
    1.9680   -0.3110   -0.5030 C   0  0  0  0  0
    2.0700   -1.8370   -0.4970 C   0  0  0  0  0
    3.4410   -2.2540    0.0370 C   0  0  0  0  0
    3.5860   -3.7740   -0.0600 C   0  0  0  0  0
    4.9000   -4.1740    0.4510 N   0  0  0  0  0
    5.2580   -5.5010    0.4640 C   0  0  0  0  0
    4.3830   -6.4540   -0.0040 N   0  0  0  0  0
    6.4260   -5.8570    0.9190 N   0  0  0  0  0
    0.5730    0.0980   -0.9030 C   0  0  0  0  0
    0.4010    0.7810   -1.8900 O   0  0  0  0  0
   -0.4820   -0.2960   -0.1630 N   0  0  0  0  0
   -1.8380    0.1010   -0.5510 C   0  0  0  0  0
   -2.8280   -0.4640    0.4350 C   0  0  0  0  0
   -2.4400   -1.1330    1.3690 O   0  0  0  0  0
   -4.1460   -0.2260    0.2770 N   0  0  0  0  0
   -5.1080   -0.7760    1.2350 C   0  0  0  0  0
   -6.5030   -0.3670    0.8360 C   0  0  0  0  0
   -7.2400   -1.1720   -0.0150 C   0  0  0  0  0
   -8.5190   -0.8060   -0.3790 C   0  0  0  0  0
   -9.0650    0.3830    0.1030 C   0  0  0  0  0
  -10.4360    0.7840   -0.2890 C   0  0  0  0  0
  -10.9430    1.8950    0.1630 N   0  0  0  0  0
  -11.1740   -0.0180   -1.1320 N   0  0  0  0  0
   -8.3160    1.1930    0.9560 C   0  0  0  0  0
   -7.0390    0.8130    1.3170 C   0  0  0  0  0
    5.3300    0.4520    0.1660 H   0  0  0  0  0
    4.0220    1.0990    1.1870 H   0  0  0  0  0
    7.1920    1.8580   -0.5040 H   0  0  0  0  0
    8.5820    3.8180    0.0360 H   0  0  0  0  0
    7.7140    5.5670    1.5350 H   0  0  0  0  0
    5.4510    5.3630    2.4850 H   0  0  0  0  0
    4.0590    3.4060    1.9400 H   0  0  0  0  0
    3.1150   -0.2330   -2.2890 H   0  0  0  0  0
    2.1880    0.0720    0.4930 H   0  0  0  0  0
    1.2900   -2.2510    0.1430 H   0  0  0  0  0
    1.9450   -2.2140   -1.5120 H   0  0  0  0  0
    4.2220   -1.7760   -0.5540 H   0  0  0  0  0
    3.5350   -1.9470    1.0790 H   0  0  0  0  0
    2.8050   -4.2520    0.5310 H   0  0  0  0  0
    3.4930   -4.0820   -1.1020 H   0  0  0  0  0
    5.5160   -3.5020    0.7810 H   0  0  0  0  0
    3.5140   -6.1890   -0.3420 H   0  0  0  0  0
    4.6360   -7.3900    0.0050 H   0  0  0  0  0
    6.6790   -6.7930    0.9270 H   0  0  0  0  0
   -0.3440   -0.8420    0.6270 H   0  0  0  0  0
   -1.9110    1.1890   -0.5550 H   0  0  0  0  0
   -2.0570   -0.2820   -1.5470 H   0  0  0  0  0
   -4.4560    0.3080   -0.4700 H   0  0  0  0  0
   -5.0360   -1.8630    1.2400 H   0  0  0  0  0
   -4.8890   -0.3930    2.2320 H   0  0  0  0  0
   -6.8140   -2.0900   -0.3910 H   0  0  0  0  0
   -9.0950   -1.4370   -1.0400 H   0  0  0  0  0
  -11.8410    2.1580   -0.0940 H   0  0  0  0  0
  -10.7960   -0.8450   -1.4690 H   0  0  0  0  0
  -12.0720    0.2450   -1.3890 H   0  0  0  0  0
   -8.7330    2.1150    1.3320 H   0  0  0  0  0
   -6.4580    1.4390    1.9780 H   0  0  0  0  0
  1  2  1  0  0  0
  1 37  1  0  0  0
  1 38  1  0  0  0
  2 11  1  0  0  0
  2 10  2  0  0  0
  3  8  1  0  0  0
  3  1  1  0  0  0
  4  3  2  0  0  0
  4 39  1  0  0  0
  5  6  2  0  0  0
  5  4  1  0  0  0
  5 40  1  0  0  0
  6  7  1  0  0  0
  6 41  1  0  0  0
  7  8  2  0  0  0
  7 42  1  0  0  0
  8 43  1  0  0  0
  9  2  2  0  0  0
 11 44  1  0  0  0
 12 11  1  0  0  0
 12 13  1  0  0  0
 12 45  1  0  0  0
 13 46  1  0  0  0
 13 47  1  0  0  0
 14 13  1  0  0  0
 14 15  1  0  0  0
 14 48  1  0  0  0
 14 49  1  0  0  0
 15 16  1  0  0  0
 15 50  1  0  0  0
 15 51  1  0  0  0
 16 17  1  0  0  0
 16 52  1  0  0  0
 17 19  2  0  0  0
 17 18  1  0  0  0
 18 53  1  0  0  0
 18 54  1  0  0  0
 19 55  1  0  0  0
 20 12  1  0  0  0
 20 21  2  0  0  0
 22 20  1  0  0  0
 22 56  1  0  0  0
 23 22  1  0  0  0
 23 57  1  0  0  0
 23 58  1  0  0  0
 24 23  1  0  0  0
 24 25  2  0  0  0
 26 24  1  0  0  0
 26 59  1  0  0  0
 27 26  1  0  0  0
 27 28  1  0  0  0
 27 60  1  0  0  0
 27 61  1  0  0  0
 28 29  1  0  0  0
 29 30  2  0  0  0
 29 62  1  0  0  0
 30 63  1  0  0  0
 31 30  1  0  0  0
 31 32  1  0  0  0
 32 34  1  0  0  0
 33 32  2  0  0  0
 33 64  1  0  0  0
 34 65  1  0  0  0
 34 66  1  0  0  0
 35 31  2  0  0  0
 35 67  1  0  0  0
 36 28  2  0  0  0
 36 35  1  0  0  0
 36 68  1  0  0  0
M  END
$$$$
