PNT
  CCTOOLS-0919241033

 49 50  0  0  0  0  0  0  0  0999 V2000
   -4.8670   -0.7760   -0.0080 C   0  0  0  0  0
   -6.0410   -1.5190   -0.0110 C   0  0  0  0  0
   -7.2620   -0.8810   -0.0060 C   0  0  0  0  0
   -7.3190    0.5130    0.0010 C   0  0  0  0  0
   -6.1380    1.2570    0.0030 C   0  0  0  0  0
   -4.9200    0.6120   -0.0010 C   0  0  0  0  0
   -2.4990   -0.5830   -0.0040 C   0  0  0  0  0
   -1.2490   -1.4660   -0.0030 C   0  0  0  0  0
   -8.6280    1.2020    0.0050 C   0  0  0  0  0
   -0.0000   -0.5830   -0.0010 C   0  0  0  0  0
    4.8670   -0.7760    0.0070 C   0  0  0  0  0
    6.0410   -1.5190    0.0080 C   0  0  0  0  0
    7.2620   -0.8810    0.0040 C   0  0  0  0  0
    7.3190    0.5130    0.0000 C   0  0  0  0  0
    6.1380    1.2570   -0.0010 C   0  0  0  0  0
    4.9200    0.6120    0.0020 C   0  0  0  0  0
    2.4990   -0.5830    0.0030 C   0  0  0  0  0
    1.2490   -1.4660    0.0000 C   0  0  0  0  0
    8.6280    1.2020   -0.0030 C   0  0  0  0  0
   -3.6650   -1.4080   -0.0070 O   0  0  0  0  0
    3.6650   -1.4080    0.0040 O   0  0  0  0  0
   -9.7300    0.5060    0.0020 N   0  0  0  0  0
   -8.6830    2.5790    0.0120 N   0  0  0  0  0
    9.7300    0.5060   -0.0020 N   0  0  0  0  0
    8.6830    2.5790   -0.0070 N   0  0  0  0  0
   -5.9960   -2.5980   -0.0170 H   0  0  0  0  0
   -8.1740   -1.4600   -0.0090 H   0  0  0  0  0
   -6.1780    2.3360    0.0090 H   0  0  0  0  0
   -4.0060    1.1870    0.0010 H   0  0  0  0  0
   -2.5000    0.0460    0.8860 H   0  0  0  0  0
   -2.4970    0.0470   -0.8940 H   0  0  0  0  0
   -1.2510   -2.0960    0.8860 H   0  0  0  0  0
   -1.2480   -2.0950   -0.8940 H   0  0  0  0  0
    0.0010    0.0470   -0.8900 H   0  0  0  0  0
   -0.0010    0.0460    0.8900 H   0  0  0  0  0
    5.9960   -2.5980    0.0110 H   0  0  0  0  0
    8.1740   -1.4600    0.0060 H   0  0  0  0  0
    6.1780    2.3360   -0.0040 H   0  0  0  0  0
    4.0060    1.1870    0.0010 H   0  0  0  0  0
    2.5000    0.0470   -0.8860 H   0  0  0  0  0
    2.4970    0.0460    0.8940 H   0  0  0  0  0
    1.2480   -2.0960    0.8900 H   0  0  0  0  0
    1.2510   -2.0950   -0.8900 H   0  0  0  0  0
  -10.5890    0.9570    0.0050 H   0  0  0  0  0
   -7.8630    3.0970    0.0140 H   0  0  0  0  0
   -9.5410    3.0300    0.0150 H   0  0  0  0  0
   10.5890    0.9570   -0.0030 H   0  0  0  0  0
    7.8630    3.0970   -0.0080 H   0  0  0  0  0
    9.5410    3.0300   -0.0090 H   0  0  0  0  0
  1  2  2  0  0  0
  1  6  1  0  0  0
  1 20  1  0  0  0
  2  3  1  0  0  0
  2 26  1  0  0  0
  3  4  2  0  0  0
  3 27  1  0  0  0
  4  5  1  0  0  0
  4  9  1  0  0  0
  5  6  2  0  0  0
  5 28  1  0  0  0
  6 29  1  0  0  0
  7  8  1  0  0  0
  7 20  1  0  0  0
  7 30  1  0  0  0
  7 31  1  0  0  0
  8 10  1  0  0  0
  8 32  1  0  0  0
  8 33  1  0  0  0
  9 22  2  0  0  0
  9 23  1  0  0  0
 10 18  1  0  0  0
 10 34  1  0  0  0
 10 35  1  0  0  0
 11 12  2  0  0  0
 11 16  1  0  0  0
 11 21  1  0  0  0
 12 13  1  0  0  0
 12 36  1  0  0  0
 13 14  2  0  0  0
 13 37  1  0  0  0
 14 15  1  0  0  0
 14 19  1  0  0  0
 15 16  2  0  0  0
 15 38  1  0  0  0
 16 39  1  0  0  0
 17 18  1  0  0  0
 17 21  1  0  0  0
 17 40  1  0  0  0
 17 41  1  0  0  0
 18 42  1  0  0  0
 18 43  1  0  0  0
 19 24  2  0  0  0
 19 25  1  0  0  0
 22 44  1  0  0  0
 23 45  1  0  0  0
 23 46  1  0  0  0
 24 47  1  0  0  0
 25 48  1  0  0  0
 25 49  1  0  0  0
M  END
$$$$
