PPB
  CCTOOLS-1004241121

 59 61  0  0  1  0  0  0  0  0999 V2000
   -0.0610   -1.4530   -3.8000 C   0  0  0  0  0
    0.7270   -0.8890   -4.9540 C   0  0  0  0  0
   -0.9430   -0.9450   -1.5760 N   0  0  0  0  0
   -0.9100    0.8700   -3.2630 B   0  0  0  0  0
   -0.1770   -0.3980   -2.6980 C   0  0  0  0  0
   -2.2310    0.7590   -3.7720 O   0  0  0  0  0
   -0.2520    2.1280   -3.2650 O   0  0  0  0  0
   -1.0510   -0.4690    2.0950 N   0  0  0  0  0
   -1.4840   -1.0850    0.8320 C   0  0  0  0  0
   -0.6960   -0.5220   -0.3210 C   0  0  0  0  0
    0.1600    0.3120   -0.1200 O   0  0  0  0  0
   -2.9820   -0.7590    0.6540 C   0  0  0  0  0
   -3.4470   -0.4480    2.1010 C   0  0  0  0  0
   -2.1950    0.2480    2.6870 C   0  0  0  0  0
    0.1870   -0.5430    2.6210 C   0  0  0  0  0
    1.0540   -1.1640    2.0440 O   0  0  0  0  0
    0.4940    0.1450    3.9250 C   0  0  0  0  0
    0.0750   -0.2330   -5.9770 C   0  0  0  0  0
    0.8080    0.2920   -7.0440 C   0  0  0  0  0
    2.1020   -1.0370   -4.9880 C   0  0  0  0  0
    2.8340   -0.5230   -6.0440 C   0  0  0  0  0
    2.1950    0.1400   -7.0710 C   0  0  0  0  0
    0.1380    0.9800   -8.1070 C   0  0  0  0  0
   -0.3920    1.5250   -8.9500 N   0  0  0  0  0
    0.2220   -0.8140    5.0850 C   0  0  0  0  0
    1.9060    0.5490    3.9450 N   0  0  0  0  0
    2.0810    0.4280    8.1270 C   0  0  0  0  0
    1.0920    1.1360    8.7840 C   0  0  0  0  0
   -0.1770    1.2130    8.2440 C   0  0  0  0  0
   -0.4590    0.5810    7.0480 C   0  0  0  0  0
    0.5290   -0.1260    6.3900 C   0  0  0  0  0
    1.7980   -0.2060    6.9320 C   0  0  0  0  0
    0.4470   -2.3330   -3.4080 H   0  0  0  0  0
   -1.0570   -1.7310   -4.1430 H   0  0  0  0  0
   -1.6280   -1.6130   -1.7370 H   0  0  0  0  0
    0.8190   -0.1190   -2.3560 H   0  0  0  0  0
   -2.4930    1.6420   -4.0650 H   0  0  0  0  0
    0.6240    1.9860   -2.8820 H   0  0  0  0  0
   -1.3440   -2.1650    0.8850 H   0  0  0  0  0
   -3.5210   -1.6170    0.2510 H   0  0  0  0  0
   -3.1100    0.1120    0.0120 H   0  0  0  0  0
   -3.6740   -1.3660    2.6440 H   0  0  0  0  0
   -4.3050    0.2240    2.1000 H   0  0  0  0  0
   -2.1810    0.1530    3.7730 H   0  0  0  0  0
   -2.1750    1.2980    2.3970 H   0  0  0  0  0
   -0.1370    1.0270    4.0280 H   0  0  0  0  0
   -0.9980   -0.1180   -5.9500 H   0  0  0  0  0
    2.6070   -1.5550   -4.1860 H   0  0  0  0  0
    3.9070   -0.6410   -6.0640 H   0  0  0  0  0
    2.7670    0.5410   -7.8950 H   0  0  0  0  0
   -0.8250   -1.1140    5.0700 H   0  0  0  0  0
    0.8530   -1.6970    4.9820 H   0  0  0  0  0
    2.4500   -0.2940    3.8480 H   0  0  0  0  0
    2.0640    1.0930    3.1110 H   0  0  0  0  0
    3.0730    0.3690    8.5480 H   0  0  0  0  0
    1.3120    1.6300    9.7190 H   0  0  0  0  0
   -0.9500    1.7660    8.7580 H   0  0  0  0  0
   -1.4520    0.6410    6.6260 H   0  0  0  0  0
    2.5700   -0.7600    6.4190 H   0  0  0  0  0
  1  2  1  0  0  0
  1  5  1  0  0  0
  1 33  1  0  0  0
  1 34  1  0  0  0
  2 18  2  0  0  0
  2 20  1  0  0  0
  3  5  1  0  0  0
  3 10  1  0  0  0
  3 35  1  0  0  0
  4  5  1  0  0  0
  4  6  1  0  0  0
  4  7  1  0  0  0
  5 36  1  0  0  0
  6 37  1  0  0  0
  7 38  1  0  0  0
  8  9  1  0  0  0
  8 14  1  0  0  0
  8 15  1  0  0  0
  9 10  1  0  0  0
  9 12  1  0  0  0
  9 39  1  0  0  0
 10 11  2  0  0  0
 12 13  1  0  0  0
 12 40  1  0  0  0
 12 41  1  0  0  0
 13 14  1  0  0  0
 13 42  1  0  0  0
 13 43  1  0  0  0
 14 44  1  0  0  0
 14 45  1  0  0  0
 15 16  2  0  0  0
 15 17  1  0  0  0
 17 25  1  0  0  0
 17 26  1  0  0  0
 17 46  1  0  0  0
 18 19  1  0  0  0
 18 47  1  0  0  0
 19 22  2  0  0  0
 19 23  1  0  0  0
 20 21  2  0  0  0
 20 48  1  0  0  0
 21 22  1  0  0  0
 21 49  1  0  0  0
 22 50  1  0  0  0
 23 24  3  0  0  0
 25 31  1  0  0  0
 25 51  1  0  0  0
 25 52  1  0  0  0
 26 53  1  0  0  0
 26 54  1  0  0  0
 27 28  2  0  0  0
 27 32  1  0  0  0
 27 55  1  0  0  0
 28 29  1  0  0  0
 28 56  1  0  0  0
 29 30  2  0  0  0
 29 57  1  0  0  0
 30 31  1  0  0  0
 30 58  1  0  0  0
 31 32  2  0  0  0
 32 59  1  0  0  0
M  END
$$$$
