PR1
  CCTOOLS-0919241033

 49 52  0  0  1  0  0  0  0  0999 V2000
    0.7280   -0.6810    5.6240 C   0  0  0  0  0
   -0.5170   -0.0940    5.6660 C   0  0  0  0  0
   -0.8940    0.8110    4.6820 C   0  0  0  0  0
   -0.0160    1.1290    3.6530 C   0  0  0  0  0
    1.2330    0.5500    3.6080 C   0  0  0  0  0
    1.6120   -0.3640    4.5910 C   0  0  0  0  0
    2.9510   -0.9920    4.5420 C   0  0  0  0  0
    3.7750   -0.6950    3.5780 N   0  0  0  0  0
    3.3260   -1.8910    5.5170 N   0  0  0  0  0
   -0.4290    2.1130    2.5890 C   0  0  0  0  0
   -2.1220    1.3870    4.7270 O   0  0  0  0  0
    0.9080    0.9580   -4.4770 C   0  0  0  0  0
    1.5650    1.9200   -5.2140 C   0  0  0  0  0
    2.9060    1.7150   -5.5050 C   0  0  0  0  0
    3.5140    0.5580   -5.0430 C   0  0  0  0  0
    2.8680   -0.3390   -4.3450 N   0  0  0  0  0
    1.5640   -0.2070   -4.0240 C   0  0  0  0  0
    0.7240   -1.1130   -3.2570 C   0  0  0  0  0
   -0.5630   -0.7990   -3.0500 C   0  0  0  0  0
   -0.7470    0.7710   -3.8720 S   0  0  0  0  0
   -1.2790    1.4380    1.6040 N   0  0  0  0  0
   -0.8150    0.7400    0.5540 C   0  0  0  0  0
   -1.9690    0.1710   -0.2420 C   0  0  0  0  0
   -3.1820    0.2870    0.7090 C   0  0  0  0  0
   -2.7460    1.4440    1.6350 C   0  0  0  0  0
   -1.7200   -1.2300   -0.5860 N   0  0  0  0  0
   -1.7810   -1.7180   -2.1680 S   0  0  0  0  0
   -1.3290   -3.0650   -2.1740 O   0  0  0  0  0
   -3.0360   -1.2690   -2.6620 O   0  0  0  0  0
    0.3570    0.5830    0.2870 O   0  0  0  0  0
    1.0200   -1.3850    6.3880 H   0  0  0  0  0
   -1.2020   -0.3390    6.4650 H   0  0  0  0  0
    1.9150    0.7980    2.8080 H   0  0  0  0  0
    3.5110   -0.0620    2.8920 H   0  0  0  0  0
    4.2040   -2.3030    5.4850 H   0  0  0  0  0
    2.7140   -2.1090    6.2370 H   0  0  0  0  0
   -0.9830    2.9320    3.0470 H   0  0  0  0  0
    0.4580    2.5060    2.0940 H   0  0  0  0  0
   -2.0320    2.2000    5.2430 H   0  0  0  0  0
    1.0520    2.8070   -5.5540 H   0  0  0  0  0
    3.4630    2.4410   -6.0800 H   0  0  0  0  0
    4.5580    0.3930   -5.2670 H   0  0  0  0  0
    1.1330   -2.0320   -2.8620 H   0  0  0  0  0
   -2.1330    0.7610   -1.1430 H   0  0  0  0  0
   -3.3240   -0.6330    1.2740 H   0  0  0  0  0
   -4.0860    0.5480    0.1580 H   0  0  0  0  0
   -3.1030    1.2690    2.6500 H   0  0  0  0  0
   -3.1280    2.3930    1.2590 H   0  0  0  0  0
   -1.5190   -1.8730    0.1110 H   0  0  0  0  0
  1  2  2  0  0  0
  1  6  1  0  0  0
  1 31  1  0  0  0
  2  3  1  0  0  0
  2 32  1  0  0  0
  3  4  2  0  0  0
  3 11  1  0  0  0
  4  5  1  0  0  0
  4 10  1  0  0  0
  5  6  2  0  0  0
  5 33  1  0  0  0
  6  7  1  0  0  0
  7  8  2  0  0  0
  7  9  1  0  0  0
  8 34  1  0  0  0
  9 35  1  0  0  0
  9 36  1  0  0  0
 10 21  1  0  0  0
 10 37  1  0  0  0
 10 38  1  0  0  0
 11 39  1  0  0  0
 12 13  1  0  0  0
 12 17  2  0  0  0
 12 20  1  0  0  0
 13 14  2  0  0  0
 13 40  1  0  0  0
 14 15  1  0  0  0
 14 41  1  0  0  0
 15 16  2  0  0  0
 15 42  1  0  0  0
 16 17  1  0  0  0
 17 18  1  0  0  0
 18 19  2  0  0  0
 18 43  1  0  0  0
 19 20  1  0  0  0
 19 27  1  0  0  0
 21 22  1  0  0  0
 21 25  1  0  0  0
 22 23  1  0  0  0
 22 30  2  0  0  0
 23 24  1  0  0  0
 23 26  1  0  0  0
 23 44  1  0  0  0
 24 25  1  0  0  0
 24 45  1  0  0  0
 24 46  1  0  0  0
 25 47  1  0  0  0
 25 48  1  0  0  0
 26 27  1  0  0  0
 26 49  1  0  0  0
 27 28  2  0  0  0
 27 29  2  0  0  0
M  END
$$$$
