PRD
  CCTOOLS-0919241033

 45 47  0  0  1  0  0  0  0  0999 V2000
   -0.1600   -0.4280   -2.9170 C   0  0  0  0  0
   -0.4750    0.9500   -2.8480 C   0  0  0  0  0
   -0.2520    1.7120   -3.9290 N   0  0  0  0  0
   -0.9790    1.4630   -1.7250 N   0  0  0  0  0
   -1.1970    0.7160   -0.6670 C   0  0  0  0  0
   -0.9110   -0.6500   -0.6630 C   0  0  0  0  0
   -1.1540   -1.4170    0.4810 N   0  0  0  0  0
   -0.8520   -2.8500    0.4800 C   0  0  0  0  0
   -0.3790   -1.2400   -1.7980 C   0  0  0  0  0
    0.3750   -0.9410   -4.1240 C   0  0  0  0  0
    0.6980   -2.2760   -4.2430 N   0  0  0  0  0
    0.5570   -0.1040   -5.1360 N   0  0  0  0  0
    0.2480    1.1840   -5.0300 C   0  0  0  0  0
    0.4620    2.0070   -6.1200 N   0  0  0  0  0
   -1.7100   -0.7860    1.6810 C   0  0  0  0  0
   -0.5870   -0.2940    2.5560 C   0  0  0  0  0
   -0.8700    0.3410    3.7560 C   0  0  0  0  0
    0.1630    0.7960    4.5610 C   0  0  0  0  0
    1.4750    0.6140    4.1690 C   0  0  0  0  0
    1.7580   -0.0220    2.9690 C   0  0  0  0  0
    0.7240   -0.4710    2.1610 C   0  0  0  0  0
   -2.1620    0.5200    4.1420 O   0  0  0  0  0
   -2.1270    1.1960    5.4000 C   0  0  0  0  0
    3.0500   -0.2010    2.5830 O   0  0  0  0  0
    3.8690    0.3650    3.6080 C   0  0  0  0  0
   -1.6070    1.1700    0.2220 H   0  0  0  0  0
   -1.1050   -3.2760    1.4510 H   0  0  0  0  0
   -1.4360   -3.3440   -0.2960 H   0  0  0  0  0
    0.2100   -2.9980    0.2850 H   0  0  0  0  0
   -0.1450   -2.2940   -1.8200 H   0  0  0  0  0
    1.0640   -2.6140   -5.0760 H   0  0  0  0  0
    0.5590   -2.8770   -3.4950 H   0  0  0  0  0
    0.8290    1.6400   -6.9400 H   0  0  0  0  0
    0.2450    2.9500   -6.0660 H   0  0  0  0  0
   -2.3070   -1.5150    2.2300 H   0  0  0  0  0
   -2.3400    0.0530    1.3900 H   0  0  0  0  0
   -0.0570    1.2910    5.4950 H   0  0  0  0  0
    2.2800    0.9670    4.7960 H   0  0  0  0  0
    0.9450   -0.9660    1.2270 H   0  0  0  0  0
   -3.1450    1.3620    5.7520 H   0  0  0  0  0
   -1.5870    0.5860    6.1250 H   0  0  0  0  0
   -1.6210    2.1540    5.2840 H   0  0  0  0  0
    4.9190    0.2450    3.3410 H   0  0  0  0  0
    3.6400    1.4260    3.7110 H   0  0  0  0  0
    3.6740   -0.1420    4.5520 H   0  0  0  0  0
  1  2  2  0  0  0
  1  9  1  0  0  0
  1 10  1  0  0  0
  2  3  1  0  0  0
  2  4  1  0  0  0
  3 13  2  0  0  0
  4  5  2  0  0  0
  5  6  1  0  0  0
  5 26  1  0  0  0
  6  7  1  0  0  0
  6  9  2  0  0  0
  7  8  1  0  0  0
  7 15  1  0  0  0
  8 27  1  0  0  0
  8 28  1  0  0  0
  8 29  1  0  0  0
  9 30  1  0  0  0
 10 11  1  0  0  0
 10 12  2  0  0  0
 11 31  1  0  0  0
 11 32  1  0  0  0
 12 13  1  0  0  0
 13 14  1  0  0  0
 14 33  1  0  0  0
 14 34  1  0  0  0
 15 16  1  0  0  0
 15 35  1  0  0  0
 15 36  1  0  0  0
 16 17  2  0  0  0
 16 21  1  0  0  0
 17 18  1  0  0  0
 17 22  1  0  0  0
 18 19  2  0  0  0
 18 37  1  0  0  0
 19 20  1  0  0  0
 19 38  1  0  0  0
 20 21  2  0  0  0
 20 24  1  0  0  0
 21 39  1  0  0  0
 22 23  1  0  0  0
 23 40  1  0  0  0
 23 41  1  0  0  0
 23 42  1  0  0  0
 24 25  1  0  0  0
 25 43  1  0  0  0
 25 44  1  0  0  0
 25 45  1  0  0  0
M  END
$$$$
