R11
  CCTOOLS-0919241039

 57 61  0  0  0  0  0  0  0  0999 V2000
   -2.1630    1.1090    8.9070 N   0  0  0  0  0
   -0.6760   -0.6080    9.3920 N   0  0  0  0  0
   -1.2640    0.2580    8.4970 C   0  0  0  0  0
   -0.8760    0.2230    7.0700 C   0  0  0  0  0
   -1.4710    1.1000    6.1620 C   0  0  0  0  0
   -1.1070    1.0660    4.8340 C   0  0  0  0  0
   -0.1480    0.1570    4.3970 C   0  0  0  0  0
    0.4410   -0.7210    5.3000 C   0  0  0  0  0
    0.0850   -0.6870    6.6300 C   0  0  0  0  0
    0.2170    0.1250    3.0540 N   0  0  0  0  0
    1.2270   -0.8300    2.5930 C   0  0  0  0  0
    0.7780   -1.2950    0.1870 N   0  0  0  0  0
    1.4390   -0.6620    1.1110 C   0  0  0  0  0
    2.3490    0.1740    0.5440 N   0  0  0  0  0
    2.2300    0.0450   -0.8240 C   0  0  0  0  0
    1.2190   -0.9080   -1.0370 C   0  0  0  0  0
    2.8770    0.6190   -1.9100 C   0  0  0  0  0
    2.5150    0.2570   -3.1900 C   0  0  0  0  0
    1.5130   -0.6790   -3.3990 C   0  0  0  0  0
    0.8690   -1.2590   -2.3430 C   0  0  0  0  0
    3.2800    1.0550    1.2550 C   0  0  0  0  0
    1.1310   -1.0620   -4.8060 C   0  0  0  0  0
    0.0670   -0.1740   -5.2810 N   0  0  0  0  0
    0.2330    1.0060   -5.9350 C   0  0  0  0  0
   -0.9240    1.5320   -6.2100 N   0  0  0  0  0
   -1.9130    0.7240   -5.7500 C   0  0  0  0  0
   -1.2910   -0.3850   -5.1530 C   0  0  0  0  0
   -3.3080    0.8000   -5.7730 C   0  0  0  0  0
   -4.0540   -0.1970   -5.2110 C   0  0  0  0  0
   -3.4400   -1.2900   -4.6170 C   0  0  0  0  0
   -2.0640   -1.3860   -4.5830 C   0  0  0  0  0
    1.5650    1.6160   -6.2910 C   0  0  0  0  0
   -2.4170    1.1320    9.8420 H   0  0  0  0  0
   -0.9310   -0.5850   10.3280 H   0  0  0  0  0
   -0.0080   -1.2410    9.0870 H   0  0  0  0  0
   -2.2160    1.8060    6.5000 H   0  0  0  0  0
   -1.5670    1.7450    4.1310 H   0  0  0  0  0
    1.1860   -1.4250    4.9580 H   0  0  0  0  0
    0.5470   -1.3670    7.3300 H   0  0  0  0  0
   -0.1960    0.7350    2.4240 H   0  0  0  0  0
    0.8870   -1.8460    2.7990 H   0  0  0  0  0
    2.1650   -0.6490    3.1180 H   0  0  0  0  0
    3.6570    1.3480   -1.7520 H   0  0  0  0  0
    3.0140    0.7050   -4.0360 H   0  0  0  0  0
    0.0910   -1.9870   -2.5170 H   0  0  0  0  0
    4.2110    0.5210    1.4450 H   0  0  0  0  0
    3.4830    1.9360    0.6460 H   0  0  0  0  0
    2.8370    1.3620    2.2020 H   0  0  0  0  0
    2.0000   -0.9670   -5.4570 H   0  0  0  0  0
    0.7780   -2.0930   -4.8190 H   0  0  0  0  0
   -3.7960    1.6460   -6.2330 H   0  0  0  0  0
   -5.1320   -0.1350   -5.2310 H   0  0  0  0  0
   -4.0430   -2.0710   -4.1770 H   0  0  0  0  0
   -1.5920   -2.2390   -4.1180 H   0  0  0  0  0
    1.8730    1.2660   -7.2760 H   0  0  0  0  0
    1.4750    2.7020   -6.3020 H   0  0  0  0  0
    2.3080    1.3200   -5.5510 H   0  0  0  0  0
  1  3  2  0  0  0
  1 33  1  0  0  0
  2  3  1  0  0  0
  2 34  1  0  0  0
  2 35  1  0  0  0
  3  4  1  0  0  0
  4  5  2  0  0  0
  4  9  1  0  0  0
  5  6  1  0  0  0
  5 36  1  0  0  0
  6  7  2  0  0  0
  6 37  1  0  0  0
  7  8  1  0  0  0
  7 10  1  0  0  0
  8  9  2  0  0  0
  8 38  1  0  0  0
  9 39  1  0  0  0
 10 11  1  0  0  0
 10 40  1  0  0  0
 11 13  1  0  0  0
 11 41  1  0  0  0
 11 42  1  0  0  0
 12 13  2  0  0  0
 12 16  1  0  0  0
 13 14  1  0  0  0
 14 15  1  0  0  0
 14 21  1  0  0  0
 15 16  2  0  0  0
 15 17  1  0  0  0
 16 20  1  0  0  0
 17 18  2  0  0  0
 17 43  1  0  0  0
 18 19  1  0  0  0
 18 44  1  0  0  0
 19 20  2  0  0  0
 19 22  1  0  0  0
 20 45  1  0  0  0
 21 46  1  0  0  0
 21 47  1  0  0  0
 21 48  1  0  0  0
 22 23  1  0  0  0
 22 49  1  0  0  0
 22 50  1  0  0  0
 23 24  1  0  0  0
 23 27  1  0  0  0
 24 25  2  0  0  0
 24 32  1  0  0  0
 25 26  1  0  0  0
 26 27  2  0  0  0
 26 28  1  0  0  0
 27 31  1  0  0  0
 28 29  2  0  0  0
 28 51  1  0  0  0
 29 30  1  0  0  0
 29 52  1  0  0  0
 30 31  2  0  0  0
 30 53  1  0  0  0
 31 54  1  0  0  0
 32 55  1  0  0  0
 32 56  1  0  0  0
 32 57  1  0  0  0
M  END
$$$$
