RPR
  CCTOOLS-0919241043

 64 66  0  0  1  0  0  0  0  0999 V2000
   -1.3180   -0.0500    6.2190 C   0  0  0  0  0
    0.0620   -0.1020    6.0310 C   0  0  0  0  0
    0.9110   -0.0800    7.1360 C   0  0  0  0  0
    0.3820   -0.0140    8.4090 C   0  0  0  0  0
   -0.9880    0.0290    8.5890 C   0  0  0  0  0
   -1.8360    0.0080    7.4970 C   0  0  0  0  0
    2.2460   -1.0580    3.1290 C   0  0  0  0  0
    1.6760   -0.3060    2.0990 C   0  0  0  0  0
    0.5790    0.5170    2.3620 C   0  0  0  0  0
    0.0530    0.5770    3.6330 C   0  0  0  0  0
    0.6240   -0.1730    4.6610 C   0  0  0  0  0
    1.7230   -0.9910    4.4000 C   0  0  0  0  0
    2.2360   -0.3770    0.7340 C   0  0  0  0  0
    1.6860    0.3480   -0.2580 N   0  0  0  0  0
    2.2410    0.2780   -1.6120 C   0  0  0  0  0
    3.3230    1.3480   -1.7750 C   0  0  0  0  0
    1.1280    0.5180   -2.6330 C   0  0  0  0  0
    0.0630   -0.5350   -2.4720 C   0  0  0  0  0
   -1.2280   -0.2160   -2.6480 O   0  0  0  0  0
    1.7080    0.4450   -4.0470 C   0  0  0  0  0
   -3.3280    0.0570    7.7020 C   0  0  0  0  0
   -3.7750    1.4560    7.7120 N   0  0  0  0  0
   -0.0800   -0.2110   -5.6650 C   0  0  0  0  0
   -1.0750    0.1110   -6.5870 C   0  0  0  0  0
   -1.3300    1.4480   -6.8890 C   0  0  0  0  0
   -0.6010    2.4440   -6.2710 C   0  0  0  0  0
    0.3800    2.1170   -5.3530 C   0  0  0  0  0
    0.6370    0.7920   -5.0490 C   0  0  0  0  0
   -1.8550   -0.9610   -7.2460 C   0  0  0  0  0
   -2.8340   -0.6380   -8.1610 N   0  0  0  0  0
   -1.6150   -2.2090   -6.9620 N   0  0  0  0  0
    0.3720   -1.6670   -2.1850 O   0  0  0  0  0
    3.1940   -1.0900    0.5060 O   0  0  0  0  0
   -2.2540   -1.2310   -2.4920 C   0  0  0  0  0
   -1.9810   -0.0670    5.3660 H   0  0  0  0  0
    1.9820   -0.1160    6.9960 H   0  0  0  0  0
    1.0390    0.0020    9.2650 H   0  0  0  0  0
   -1.3980    0.0810    9.5870 H   0  0  0  0  0
    3.0970   -1.6920    2.9270 H   0  0  0  0  0
    0.1370    1.0990    1.5670 H   0  0  0  0  0
   -0.7970    1.2110    3.8360 H   0  0  0  0  0
    2.1640   -1.5730    5.1970 H   0  0  0  0  0
    0.9210    0.9170   -0.0770 H   0  0  0  0  0
    2.6780   -0.7070   -1.7750 H   0  0  0  0  0
    2.8870    2.3330   -1.6120 H   0  0  0  0  0
    4.1160    1.1770   -1.0480 H   0  0  0  0  0
    3.7360    1.2960   -2.7830 H   0  0  0  0  0
    0.6920    1.5030   -2.4700 H   0  0  0  0  0
    2.5340    1.1510   -4.1380 H   0  0  0  0  0
    2.0710   -0.5640   -4.2390 H   0  0  0  0  0
   -3.8240   -0.4760    6.8910 H   0  0  0  0  0
   -3.5800   -0.4110    8.6530 H   0  0  0  0  0
   -4.7750    1.4400    7.8510 H   0  0  0  0  0
   -3.3750    1.8820    8.5340 H   0  0  0  0  0
    0.1210   -1.2450   -5.4270 H   0  0  0  0  0
   -2.0970    1.7050   -7.6050 H   0  0  0  0  0
   -0.7970    3.4800   -6.5040 H   0  0  0  0  0
    0.9480    2.8990   -4.8710 H   0  0  0  0  0
   -3.3440   -1.3410   -8.5930 H   0  0  0  0  0
   -3.0120    0.2900   -8.3720 H   0  0  0  0  0
   -2.1250   -2.9110   -7.3940 H   0  0  0  0  0
   -3.2340   -0.7880   -2.6720 H   0  0  0  0  0
   -2.0820   -2.0340   -3.2090 H   0  0  0  0  0
   -2.2180   -1.6330   -1.4800 H   0  0  0  0  0
  1  2  2  0  0  0
  1  6  1  0  0  0
  1 35  1  0  0  0
  2  3  1  0  0  0
  2 11  1  0  0  0
  3  4  2  0  0  0
  3 36  1  0  0  0
  4  5  1  0  0  0
  4 37  1  0  0  0
  5  6  2  0  0  0
  5 38  1  0  0  0
  6 21  1  0  0  0
  7  8  2  0  0  0
  7 12  1  0  0  0
  7 39  1  0  0  0
  8  9  1  0  0  0
  8 13  1  0  0  0
  9 10  2  0  0  0
  9 40  1  0  0  0
 10 11  1  0  0  0
 10 41  1  0  0  0
 11 12  2  0  0  0
 12 42  1  0  0  0
 13 14  1  0  0  0
 13 33  2  0  0  0
 14 15  1  0  0  0
 14 43  1  0  0  0
 15 16  1  0  0  0
 15 17  1  0  0  0
 15 44  1  0  0  0
 16 45  1  0  0  0
 16 46  1  0  0  0
 16 47  1  0  0  0
 17 18  1  0  0  0
 17 20  1  0  0  0
 17 48  1  0  0  0
 18 19  1  0  0  0
 18 32  2  0  0  0
 19 34  1  0  0  0
 20 28  1  0  0  0
 20 49  1  0  0  0
 20 50  1  0  0  0
 21 22  1  0  0  0
 21 51  1  0  0  0
 21 52  1  0  0  0
 22 53  1  0  0  0
 22 54  1  0  0  0
 23 24  2  0  0  0
 23 28  1  0  0  0
 23 55  1  0  0  0
 24 25  1  0  0  0
 24 29  1  0  0  0
 25 26  2  0  0  0
 25 56  1  0  0  0
 26 27  1  0  0  0
 26 57  1  0  0  0
 27 28  2  0  0  0
 27 58  1  0  0  0
 29 30  1  0  0  0
 29 31  2  0  0  0
 30 59  1  0  0  0
 30 60  1  0  0  0
 31 61  1  0  0  0
 34 62  1  0  0  0
 34 63  1  0  0  0
 34 64  1  0  0  0
M  END
$$$$
