RWJ
  CCTOOLS-1004241128

 52 54  0  0  1  0  0  0  0  0999 V2000
    2.9710   -0.6060    2.8520 C   0  0  0  0  0
    3.6590    0.6140    3.4890 C   0  0  0  0  0
    3.2760    0.6060    4.9830 C   0  0  0  0  0
    2.9220   -0.8730    5.2760 C   0  0  0  0  0
    2.1940   -1.3130    3.9810 C   0  0  0  0  0
    2.0200   -0.1570    1.7730 C   0  0  0  0  0
    1.8950    1.0230    1.5270 O   0  0  0  0  0
    1.3070   -1.0680    1.0810 N   0  0  0  0  0
    0.3820   -0.6320    0.0320 C   0  0  0  0  0
   -0.6800    0.2850    0.6400 C   0  0  0  0  0
   -1.4540   -0.4750    1.7180 C   0  0  0  0  0
   -2.5180    0.4410    2.3250 C   0  0  0  0  0
   -3.2590   -0.2870    3.3580 N   0  0  0  0  0
   -4.2710    0.3370    4.0470 C   0  0  0  0  0
   -4.5720    1.5770    3.7820 N   0  0  0  0  0
   -4.9670   -0.3460    5.0160 N   0  0  0  0  0
    2.1420    0.7400   -0.7340 O   0  0  0  0  0
   -0.3640   -0.5250   -2.9360 N   0  0  0  0  0
    0.6790    0.0920   -2.4240 C   0  0  0  0  0
    1.3900    0.8850   -3.8600 S   0  0  0  0  0
   -0.6790   -0.4600   -4.2320 C   0  0  0  0  0
    0.1940    0.3120   -5.0410 C   0  0  0  0  0
    0.0040    0.4670   -6.3940 C   0  0  0  0  0
   -1.0720   -0.1450   -7.0030 C   0  0  0  0  0
   -1.9460   -0.9080   -6.2370 C   0  0  0  0  0
   -1.7720   -1.0700   -4.9010 C   0  0  0  0  0
    1.1440    0.1170   -1.0290 C   0  0  0  0  0
    3.7190   -1.2800    2.4330 H   0  0  0  0  0
    4.7410    0.5310    3.3800 H   0  0  0  0  0
    3.3050    1.5300    3.0170 H   0  0  0  0  0
    4.1200    0.9240    5.5950 H   0  0  0  0  0
    2.4130    1.2470    5.1590 H   0  0  0  0  0
    3.8250   -1.4630    5.4320 H   0  0  0  0  0
    2.2570   -0.9470    6.1370 H   0  0  0  0  0
    1.1560   -0.9810    3.9960 H   0  0  0  0  0
    2.2480   -2.3950    3.8620 H   0  0  0  0  0
    1.4070   -2.0130    1.2780 H   0  0  0  0  0
   -0.0990   -1.5020   -0.4110 H   0  0  0  0  0
   -1.3690    0.6090   -0.1400 H   0  0  0  0  0
   -0.1980    1.1550    1.0840 H   0  0  0  0  0
   -0.7660   -0.8000    2.4980 H   0  0  0  0  0
   -1.9360   -1.3460    1.2740 H   0  0  0  0  0
   -3.2060    0.7660    1.5450 H   0  0  0  0  0
   -2.0360    1.3120    2.7700 H   0  0  0  0  0
   -3.0350   -1.2100    3.5560 H   0  0  0  0  0
   -4.0820    2.0590    3.0980 H   0  0  0  0  0
   -5.6810    0.0940    5.5020 H   0  0  0  0  0
   -4.7460   -1.2700    5.2110 H   0  0  0  0  0
    0.6920    1.0640   -6.9750 H   0  0  0  0  0
   -1.2340   -0.0320   -8.0650 H   0  0  0  0  0
   -2.7870   -1.3850   -6.7190 H   0  0  0  0  0
   -2.4730   -1.6710   -4.3400 H   0  0  0  0  0
  1  2  1  0  0  0
  1  5  1  0  0  0
  1  6  1  0  0  0
  1 28  1  0  0  0
  2  3  1  0  0  0
  2 29  1  0  0  0
  2 30  1  0  0  0
  3  4  1  0  0  0
  3 31  1  0  0  0
  3 32  1  0  0  0
  4  5  1  0  0  0
  4 33  1  0  0  0
  4 34  1  0  0  0
  5 35  1  0  0  0
  5 36  1  0  0  0
  6  7  2  0  0  0
  6  8  1  0  0  0
  8  9  1  0  0  0
  8 37  1  0  0  0
  9 10  1  0  0  0
  9 27  1  0  0  0
  9 38  1  0  0  0
 10 11  1  0  0  0
 10 39  1  0  0  0
 10 40  1  0  0  0
 11 12  1  0  0  0
 11 41  1  0  0  0
 11 42  1  0  0  0
 12 13  1  0  0  0
 12 43  1  0  0  0
 12 44  1  0  0  0
 13 14  1  0  0  0
 13 45  1  0  0  0
 14 15  2  0  0  0
 14 16  1  0  0  0
 15 46  1  0  0  0
 16 47  1  0  0  0
 16 48  1  0  0  0
 17 27  2  0  0  0
 18 19  2  0  0  0
 18 21  1  0  0  0
 19 20  1  0  0  0
 19 27  1  0  0  0
 20 22  1  0  0  0
 21 22  2  0  0  0
 21 26  1  0  0  0
 22 23  1  0  0  0
 23 24  2  0  0  0
 23 49  1  0  0  0
 24 25  1  0  0  0
 24 50  1  0  0  0
 25 26  2  0  0  0
 25 51  1  0  0  0
 26 52  1  0  0  0
M  END
$$$$
