T87
  CCTOOLS-0919241033

 70 74  0  0  0  0  0  0  0  0999 V2000
  -10.1690   -0.3260    1.7200 N   0  0  0  0  0
  -10.3530   -0.9160   -0.5190 N   0  0  0  0  0
   -9.6150   -0.4930    0.4690 C   0  0  0  0  0
   -8.1840   -0.1930    0.2480 C   0  0  0  0  0
   -7.6220   -0.3620   -1.0190 C   0  0  0  0  0
   -6.2890   -0.0820   -1.2220 C   0  0  0  0  0
   -5.5030    0.3700   -0.1670 C   0  0  0  0  0
   -6.0590    0.5340    1.0980 C   0  0  0  0  0
   -7.3930    0.2600    1.3050 C   0  0  0  0  0
   -4.1560    0.6530   -0.3750 N   0  0  0  0  0
   -3.3270    1.1280    0.7350 C   0  0  0  0  0
   -0.9730    0.4650    0.2530 N   0  0  0  0  0
   -1.9190    1.3590    0.2480 C   0  0  0  0  0
   -1.4520    2.5310   -0.2600 N   0  0  0  0  0
   -0.1250    2.3370   -0.5880 C   0  0  0  0  0
    0.1660    1.0030   -0.2520 C   0  0  0  0  0
    0.8640    3.1430   -1.1340 C   0  0  0  0  0
    2.1260    2.6290   -1.3430 C   0  0  0  0  0
    2.4130    1.3130   -1.0110 C   0  0  0  0  0
    1.4510    0.5030   -0.4770 C   0  0  0  0  0
   -2.2160    3.7700   -0.4280 C   0  0  0  0  0
    4.5830    1.3270   -2.4360 C   0  0  0  0  0
    4.0170   -0.0930   -2.4920 C   0  0  0  0  0
    3.7990    0.7700   -1.2470 C   0  0  0  0  0
    4.5760    0.4110   -0.0070 C   0  0  0  0  0
    4.5630   -0.8030    0.4360 N   0  0  0  0  0
    5.2750    2.7140    0.3110 N   0  0  0  0  0
    5.3540    1.4480    0.7020 C   0  0  0  0  0
    6.1710    1.0870    1.7750 C   0  0  0  0  0
    6.8940    2.0700    2.4290 C   0  0  0  0  0
    6.7770    3.3810    1.9900 C   0  0  0  0  0
    5.9480    3.6680    0.9200 C   0  0  0  0  0
    3.7230   -1.7690   -0.1700 O   0  0  0  0  0
    3.9290   -2.9950    0.5330 C   0  0  0  0  0
    3.0590   -4.0700   -0.0660 C   0  0  0  0  0
    2.3370   -3.8120   -0.9990 O   0  0  0  0  0
    3.0880   -5.3150    0.4370 O   0  0  0  0  0
    2.4710   -7.6640    0.6120 C   0  0  0  0  0
    2.2500   -6.3500   -0.1400 C   0  0  0  0  0
  -11.1080   -0.5220    1.8650 H   0  0  0  0  0
    0.0000    0.0000    0.0000 H   0  0  0  0  0
  -11.2910   -1.1130   -0.3740 H   0  0  0  0  0
   -8.2320   -0.7120   -1.8380 H   0  0  0  0  0
   -5.8540   -0.2120   -2.2020 H   0  0  0  0  0
   -5.4470    0.8850    1.9150 H   0  0  0  0  0
   -7.8260    0.3920    2.2860 H   0  0  0  0  0
   -3.7660    0.5350   -1.2560 H   0  0  0  0  0
   -3.3190    0.3810    1.5290 H   0  0  0  0  0
   -3.7360    2.0630    1.1190 H   0  0  0  0  0
    0.6450    4.1680   -1.3940 H   0  0  0  0  0
    2.8970    3.2560   -1.7670 H   0  0  0  0  0
    1.6840   -0.5220   -0.2280 H   0  0  0  0  0
   -2.6820    3.7780   -1.4120 H   0  0  0  0  0
   -2.9870    3.8280    0.3410 H   0  0  0  0  0
   -1.5460    4.6250   -0.3350 H   0  0  0  0  0
    4.0970    2.0870   -3.0480 H   0  0  0  0  0
    5.6620    1.4350   -2.3220 H   0  0  0  0  0
    4.7230   -0.9190   -2.4140 H   0  0  0  0  0
    3.1590   -0.2670   -3.1400 H   0  0  0  0  0
    6.2380    0.0570    2.0900 H   0  0  0  0  0
    7.5350    1.8220    3.2620 H   0  0  0  0  0
    7.3280    4.1710    2.4790 H   0  0  0  0  0
    5.8560    4.6880    0.5760 H   0  0  0  0  0
    3.6700   -2.8610    1.5830 H   0  0  0  0  0
    4.9760   -3.2880    0.4520 H   0  0  0  0  0
    1.8420   -8.4410    0.1790 H   0  0  0  0  0
    3.5180   -7.9570    0.5320 H   0  0  0  0  0
    2.2110   -7.5290    1.6620 H   0  0  0  0  0
    2.5090   -6.4850   -1.1900 H   0  0  0  0  0
    1.2030   -6.0570   -0.0600 H   0  0  0  0  0
  1  3  2  0  0  0
  1 40  1  0  0  0
  2  3  1  0  0  0
  2 41  1  0  0  0
  2 42  1  0  0  0
  3  4  1  0  0  0
  4  5  2  0  0  0
  4  9  1  0  0  0
  5  6  1  0  0  0
  5 43  1  0  0  0
  6  7  2  0  0  0
  6 44  1  0  0  0
  7  8  1  0  0  0
  7 10  1  0  0  0
  8  9  2  0  0  0
  8 45  1  0  0  0
  9 46  1  0  0  0
 10 11  1  0  0  0
 10 47  1  0  0  0
 11 13  1  0  0  0
 11 48  1  0  0  0
 11 49  1  0  0  0
 12 13  2  0  0  0
 12 16  1  0  0  0
 13 14  1  0  0  0
 14 15  1  0  0  0
 14 21  1  0  0  0
 15 16  2  0  0  0
 15 17  1  0  0  0
 16 20  1  0  0  0
 17 18  2  0  0  0
 17 50  1  0  0  0
 18 19  1  0  0  0
 18 51  1  0  0  0
 19 20  2  0  0  0
 19 24  1  0  0  0
 20 52  1  0  0  0
 21 53  1  0  0  0
 21 54  1  0  0  0
 21 55  1  0  0  0
 22 23  1  0  0  0
 22 24  1  0  0  0
 22 56  1  0  0  0
 22 57  1  0  0  0
 23 24  1  0  0  0
 23 58  1  0  0  0
 23 59  1  0  0  0
 24 25  1  0  0  0
 25 26  2  0  0  0
 25 28  1  0  0  0
 26 33  1  0  0  0
 27 28  2  0  0  0
 27 32  1  0  0  0
 28 29  1  0  0  0
 29 30  2  0  0  0
 29 60  1  0  0  0
 30 31  1  0  0  0
 30 61  1  0  0  0
 31 32  2  0  0  0
 31 62  1  0  0  0
 32 63  1  0  0  0
 33 34  1  0  0  0
 34 35  1  0  0  0
 34 64  1  0  0  0
 34 65  1  0  0  0
 35 36  2  0  0  0
 35 37  1  0  0  0
 37 39  1  0  0  0
 38 39  1  0  0  0
 38 66  1  0  0  0
 38 67  1  0  0  0
 38 68  1  0  0  0
 39 69  1  0  0  0
 39 70  1  0  0  0
M  END
$$$$
