TFN
  CCTOOLS-0919241034

 68 69  0  0  1  0  0  0  0  0999 V2000
   -5.4170    0.0230   -0.1700 C   0  0  0  0  0
   -4.5600    1.1180    0.9960 S   0  0  0  0  0
   -6.7650    0.6050   -0.5070 C   0  0  0  0  0
   -6.8970    1.4670   -1.5800 C   0  0  0  0  0
   -8.1340    2.0010   -1.8890 C   0  0  0  0  0
   -9.2390    1.6730   -1.1270 C   0  0  0  0  0
   -9.1070    0.8110   -0.0540 C   0  0  0  0  0
   -7.8720    0.2720    0.2520 C   0  0  0  0  0
   -4.2050    2.3400    0.3630 O   0  0  0  0  0
   -5.2110    1.1090    2.2590 O   0  0  0  0  0
   -3.1110    0.3680    1.2780 N   0  0  0  0  0
   -2.1430    0.2120    0.1900 C   0  0  0  0  0
   -2.3150   -1.1670   -0.4520 C   0  0  0  0  0
   -1.9820   -2.1800    0.4990 O   0  0  0  0  0
   -2.1100   -3.5120   -0.0020 C   0  0  0  0  0
   -1.1800   -3.6970   -1.2030 C   0  0  0  0  0
   -1.7300   -4.5080    1.0950 C   0  0  0  0  0
   -3.5570   -3.7570   -0.4340 C   0  0  0  0  0
   -0.7450    0.3390    0.7380 C   0  0  0  0  0
   -0.5750    0.5410    1.9220 O   0  0  0  0  0
    0.3150    0.2290   -0.0860 N   0  0  0  0  0
    1.6740    0.3530    0.4470 C   0  0  0  0  0
    2.6700    0.1920   -0.6730 C   0  0  0  0  0
    2.2830   -0.0070   -1.8040 O   0  0  0  0  0
    3.9910    0.2690   -0.4160 N   0  0  0  0  0
    4.9590    0.1120   -1.5040 C   0  0  0  0  0
    6.3560    0.2400   -0.9550 C   0  0  0  0  0
    7.0260   -0.8850   -0.5070 C   0  0  0  0  0
    8.3060   -0.7740   -0.0030 C   0  0  0  0  0
    8.9240    0.4750    0.0530 C   0  0  0  0  0
   10.2980    0.6000    0.5930 C   0  0  0  0  0
   10.9310   -0.4570    1.0150 N   0  0  0  0  0
   10.9060    1.8350    0.6470 N   0  0  0  0  0
    8.2450    1.6050   -0.4000 C   0  0  0  0  0
    6.9670    1.4800   -0.9070 C   0  0  0  0  0
   -4.8250   -0.0740   -1.0800 H   0  0  0  0  0
   -5.5490   -0.9590    0.2840 H   0  0  0  0  0
   -6.0340    1.7240   -2.1760 H   0  0  0  0  0
   -8.2370    2.6750   -2.7270 H   0  0  0  0  0
  -10.2050    2.0910   -1.3680 H   0  0  0  0  0
   -9.9710    0.5550    0.5420 H   0  0  0  0  0
   -7.7690   -0.4020    1.0890 H   0  0  0  0  0
   -2.9030    0.0330    2.1640 H   0  0  0  0  0
   -2.3110    0.9850   -0.5600 H   0  0  0  0  0
   -3.3500   -1.2930   -0.7700 H   0  0  0  0  0
   -1.6570   -1.2500   -1.3170 H   0  0  0  0  0
   -0.1490   -3.5220   -0.8950 H   0  0  0  0  0
   -1.2780   -4.7130   -1.5850 H   0  0  0  0  0
   -1.4510   -2.9870   -1.9850 H   0  0  0  0  0
   -2.3920   -4.3770    1.9510 H   0  0  0  0  0
   -1.8270   -5.5240    0.7130 H   0  0  0  0  0
   -0.6990   -4.3330    1.4040 H   0  0  0  0  0
   -3.8280   -3.0480   -1.2160 H   0  0  0  0  0
   -3.6540   -4.7740   -0.8160 H   0  0  0  0  0
   -4.2190   -3.6260    0.4210 H   0  0  0  0  0
    0.1790    0.0680   -1.0330 H   0  0  0  0  0
    1.7970    1.3350    0.9040 H   0  0  0  0  0
    1.8420   -0.4200    1.1970 H   0  0  0  0  0
    4.3000    0.4280    0.4900 H   0  0  0  0  0
    4.8360   -0.8690   -1.9610 H   0  0  0  0  0
    4.7910    0.8860   -2.2540 H   0  0  0  0  0
    6.5460   -1.8510   -0.5520 H   0  0  0  0  0
    8.8270   -1.6530    0.3470 H   0  0  0  0  0
   11.8300   -0.3750    1.3680 H   0  0  0  0  0
   10.4350    2.6220    0.3330 H   0  0  0  0  0
   11.8060    1.9170    1.0000 H   0  0  0  0  0
    8.7180    2.5740   -0.3590 H   0  0  0  0  0
    6.4410    2.3540   -1.2620 H   0  0  0  0  0
  1  2  1  0  0  0
  1 36  1  0  0  0
  1 37  1  0  0  0
  2 11  1  0  0  0
  2 10  2  0  0  0
  3  4  2  0  0  0
  3  1  1  0  0  0
  4 38  1  0  0  0
  5  4  1  0  0  0
  5 39  1  0  0  0
  6  5  2  0  0  0
  6 40  1  0  0  0
  7  6  1  0  0  0
  7  8  2  0  0  0
  7 41  1  0  0  0
  8  3  1  0  0  0
  8 42  1  0  0  0
  9  2  2  0  0  0
 11 43  1  0  0  0
 12 11  1  0  0  0
 12 13  1  0  0  0
 12 44  1  0  0  0
 13 45  1  0  0  0
 13 46  1  0  0  0
 14 13  1  0  0  0
 14 15  1  0  0  0
 15 16  1  0  0  0
 16 47  1  0  0  0
 16 48  1  0  0  0
 16 49  1  0  0  0
 17 15  1  0  0  0
 17 50  1  0  0  0
 17 51  1  0  0  0
 17 52  1  0  0  0
 18 15  1  0  0  0
 18 53  1  0  0  0
 18 54  1  0  0  0
 18 55  1  0  0  0
 19 12  1  0  0  0
 19 20  2  0  0  0
 21 19  1  0  0  0
 21 56  1  0  0  0
 22 21  1  0  0  0
 22 57  1  0  0  0
 22 58  1  0  0  0
 23 22  1  0  0  0
 23 24  2  0  0  0
 25 23  1  0  0  0
 25 59  1  0  0  0
 26 25  1  0  0  0
 26 27  1  0  0  0
 26 60  1  0  0  0
 26 61  1  0  0  0
 27 28  1  0  0  0
 28 29  2  0  0  0
 28 62  1  0  0  0
 29 63  1  0  0  0
 30 29  1  0  0  0
 30 31  1  0  0  0
 31 33  1  0  0  0
 32 31  2  0  0  0
 32 64  1  0  0  0
 33 65  1  0  0  0
 33 66  1  0  0  0
 34 30  2  0  0  0
 34 67  1  0  0  0
 35 27  2  0  0  0
 35 34  1  0  0  0
 35 68  1  0  0  0
M  END
$$$$
