TL1
  CCTOOLS-0919241034

 50 53  0  0  1  0  0  0  0  0999 V2000
    6.0690    2.5630    1.1760 N   0  0  0  0  0
    6.6500    1.4420    0.8580 C   0  0  0  0  0
    8.0250    1.3720    0.7970 N   0  0  0  0  0
    5.8340    0.2420    0.5610 C   0  0  0  0  0
    6.4540   -0.9600    0.2200 C   0  0  0  0  0
    5.6910   -2.0750   -0.0560 C   0  0  0  0  0
    4.3110   -2.0070    0.0040 C   0  0  0  0  0
    3.6850   -0.8150    0.3420 C   0  0  0  0  0
    2.3290   -0.7520    0.3990 O   0  0  0  0  0
    1.8600   -0.7120   -0.9500 C   0  0  0  0  0
    1.7420    0.7490   -1.4370 C   0  0  0  0  0
    0.3680    1.1120   -1.1860 O   0  0  0  0  0
   -0.4110   -0.0460   -1.5490 C   0  0  0  0  0
   -1.6960   -0.0670   -0.6930 C   0  0  0  0  0
   -2.8480   -0.2280   -1.5240 O   0  0  0  0  0
   -3.8790    0.3900   -0.8890 C   0  0  0  0  0
   -3.9890    1.7730   -0.9280 C   0  0  0  0  0
   -5.0350    2.4060   -0.2840 C   0  0  0  0  0
   -5.9780    1.6660    0.4020 C   0  0  0  0  0
   -5.8750    0.2760    0.4450 C   0  0  0  0  0
   -6.8840   -0.5210    1.1800 C   0  0  0  0  0
   -6.7870   -1.8190    1.2200 N   0  0  0  0  0
   -7.9270    0.1120    1.8230 N   0  0  0  0  0
   -4.8220   -0.3620   -0.2090 C   0  0  0  0  0
   -1.5170   -1.2920    0.2300 C   0  0  0  0  0
   -0.0890   -1.4860    0.3120 O   0  0  0  0  0
    0.4200   -1.2610   -1.0380 C   0  0  0  0  0
    4.4430    0.3090    0.6270 C   0  0  0  0  0
    5.1010    2.6120    1.2190 H   0  0  0  0  0
    8.5590    2.1570    0.9920 H   0  0  0  0  0
    8.4580    0.5360    0.5640 H   0  0  0  0  0
    7.5310   -1.0170    0.1720 H   0  0  0  0  0
    6.1720   -3.0050   -0.3210 H   0  0  0  0  0
    3.7180   -2.8830   -0.2130 H   0  0  0  0  0
    2.5250   -1.2790   -1.6010 H   0  0  0  0  0
    2.4140    1.3930   -0.8710 H   0  0  0  0  0
    1.9620    0.8120   -2.5030 H   0  0  0  0  0
   -0.6170   -0.0960   -2.6180 H   0  0  0  0  0
   -1.7760    0.8470   -0.1040 H   0  0  0  0  0
   -3.2540    2.3570   -1.4620 H   0  0  0  0  0
   -5.1160    3.4830   -0.3160 H   0  0  0  0  0
   -6.7940    2.1640    0.9050 H   0  0  0  0  0
   -7.4480   -2.3400    1.7010 H   0  0  0  0  0
   -8.5880   -0.4100    2.3040 H   0  0  0  0  0
   -7.9990    1.0780    1.7940 H   0  0  0  0  0
   -4.7380   -1.4380   -0.1790 H   0  0  0  0  0
   -1.9290   -1.0860    1.2180 H   0  0  0  0  0
   -1.9950   -2.1690   -0.2060 H   0  0  0  0  0
    0.3350   -2.1440   -1.6710 H   0  0  0  0  0
    3.9570    1.2370    0.8910 H   0  0  0  0  0
  1  2  2  0  0  0
  1 29  1  0  0  0
  2  3  1  0  0  0
  2  4  1  0  0  0
  3 30  1  0  0  0
  3 31  1  0  0  0
  4  5  2  0  0  0
  4 28  1  0  0  0
  5  6  1  0  0  0
  5 32  1  0  0  0
  6  7  2  0  0  0
  6 33  1  0  0  0
  7  8  1  0  0  0
  7 34  1  0  0  0
  8  9  1  0  0  0
  8 28  2  0  0  0
  9 10  1  0  0  0
 10 11  1  0  0  0
 10 27  1  0  0  0
 10 35  1  0  0  0
 11 12  1  0  0  0
 11 36  1  0  0  0
 11 37  1  0  0  0
 12 13  1  0  0  0
 13 14  1  0  0  0
 13 27  1  0  0  0
 13 38  1  0  0  0
 14 15  1  0  0  0
 14 25  1  0  0  0
 14 39  1  0  0  0
 15 16  1  0  0  0
 16 17  2  0  0  0
 16 24  1  0  0  0
 17 18  1  0  0  0
 17 40  1  0  0  0
 18 19  2  0  0  0
 18 41  1  0  0  0
 19 20  1  0  0  0
 19 42  1  0  0  0
 20 21  1  0  0  0
 20 24  2  0  0  0
 21 22  2  0  0  0
 21 23  1  0  0  0
 22 43  1  0  0  0
 23 44  1  0  0  0
 23 45  1  0  0  0
 24 46  1  0  0  0
 25 26  1  0  0  0
 25 47  1  0  0  0
 25 48  1  0  0  0
 26 27  1  0  0  0
 27 49  1  0  0  0
 28 50  1  0  0  0
M  END
$$$$
