TL2
  CCTOOLS-0919241034

 50 53  0  0  1  0  0  0  0  0999 V2000
   -7.4130    2.2680   -0.8500 N   0  0  0  0  0
   -7.0510    1.0160   -0.8340 C   0  0  0  0  0
   -5.7770    0.6220   -0.1930 C   0  0  0  0  0
   -4.9620    1.5910    0.3950 C   0  0  0  0  0
   -3.7760    1.2200    0.9910 C   0  0  0  0  0
   -5.3910   -0.7190   -0.1690 C   0  0  0  0  0
   -4.2010   -1.0810    0.4240 C   0  0  0  0  0
   -3.3920   -0.1150    1.0080 C   0  0  0  0  0
   -2.2230   -0.4760    1.5960 O   0  0  0  0  0
   -1.2780   -0.6860    0.5440 C   0  0  0  0  0
   -0.4810    0.6080    0.2680 C   0  0  0  0  0
    0.8560    0.1580   -0.0400 O   0  0  0  0  0
   -0.2080   -1.7100    0.9750 C   0  0  0  0  0
    1.1280   -0.9120    0.8880 C   0  0  0  0  0
    2.1230   -1.8940    0.2330 C   0  0  0  0  0
    2.5900   -1.3750   -1.0140 O   0  0  0  0  0
   -0.0740   -2.7300   -0.0570 O   0  0  0  0  0
    4.9510   -1.6100   -0.8290 C   0  0  0  0  0
    1.2960   -3.1800    0.0110 C   0  0  0  0  0
    3.8090   -0.8220   -0.7760 C   0  0  0  0  0
    3.9110    0.5290   -0.4880 C   0  0  0  0  0
    5.2790    2.5330    0.0760 C   0  0  0  0  0
    4.2120    3.2770    0.1260 N   0  0  0  0  0
    6.5170    3.0880    0.3170 N   0  0  0  0  0
    6.1920   -1.0520   -0.5880 C   0  0  0  0  0
    6.3040    0.2920   -0.2940 C   0  0  0  0  0
    5.1620    1.0910   -0.2400 C   0  0  0  0  0
   -7.8550    0.0590   -1.4140 N   0  0  0  0  0
   -8.2480    2.5260   -1.2700 H   0  0  0  0  0
   -5.2590    2.6290    0.3820 H   0  0  0  0  0
   -3.1440    1.9690    1.4460 H   0  0  0  0  0
   -6.0200   -1.4700   -0.6230 H   0  0  0  0  0
   -3.9000   -2.1180    0.4390 H   0  0  0  0  0
   -1.7850   -1.0210   -0.3610 H   0  0  0  0  0
   -0.9060    1.1420   -0.5810 H   0  0  0  0  0
   -0.4720    1.2440    1.1530 H   0  0  0  0  0
   -0.3950   -2.1340    1.9620 H   0  0  0  0  0
    1.4700   -0.5510    1.8580 H   0  0  0  0  0
    2.9610   -2.0910    0.9020 H   0  0  0  0  0
    4.8690   -2.6620   -1.0580 H   0  0  0  0  0
    1.5850   -3.6590   -0.9250 H   0  0  0  0  0
    1.4290   -3.8660    0.8470 H   0  0  0  0  0
    3.0240    1.1430   -0.4480 H   0  0  0  0  0
    4.2880    4.2220    0.3330 H   0  0  0  0  0
    7.3120    2.5340    0.2790 H   0  0  0  0  0
    6.5940    4.0320    0.5230 H   0  0  0  0  0
    7.0770   -1.6690   -0.6290 H   0  0  0  0  0
    7.2760    0.7250   -0.1050 H   0  0  0  0  0
   -7.5860   -0.8730   -1.4010 H   0  0  0  0  0
   -8.6920    0.3160   -1.8300 H   0  0  0  0  0
  1  2  2  0  0  0
  1 29  1  0  0  0
  2  3  1  0  0  0
  2 28  1  0  0  0
  3  4  2  0  0  0
  3  6  1  0  0  0
  4  5  1  0  0  0
  4 30  1  0  0  0
  5  8  2  0  0  0
  5 31  1  0  0  0
  6  7  2  0  0  0
  6 32  1  0  0  0
  7  8  1  0  0  0
  7 33  1  0  0  0
  8  9  1  0  0  0
  9 10  1  0  0  0
 10 11  1  0  0  0
 10 13  1  0  0  0
 10 34  1  0  0  0
 11 12  1  0  0  0
 11 35  1  0  0  0
 11 36  1  0  0  0
 12 14  1  0  0  0
 13 14  1  0  0  0
 13 17  1  0  0  0
 13 37  1  0  0  0
 14 15  1  0  0  0
 14 38  1  0  0  0
 15 16  1  0  0  0
 15 19  1  0  0  0
 15 39  1  0  0  0
 16 20  1  0  0  0
 17 19  1  0  0  0
 18 20  2  0  0  0
 18 25  1  0  0  0
 18 40  1  0  0  0
 19 41  1  0  0  0
 19 42  1  0  0  0
 20 21  1  0  0  0
 21 27  2  0  0  0
 21 43  1  0  0  0
 22 23  2  0  0  0
 22 24  1  0  0  0
 22 27  1  0  0  0
 23 44  1  0  0  0
 24 45  1  0  0  0
 24 46  1  0  0  0
 25 26  2  0  0  0
 25 47  1  0  0  0
 26 27  1  0  0  0
 26 48  1  0  0  0
 28 49  1  0  0  0
 28 50  1  0  0  0
M  END
$$$$
