TL3
  CCTOOLS-0919241034

 50 53  0  0  1  0  0  0  0  0999 V2000
    8.3260    1.8260    0.1630 N   0  0  0  0  0
    7.8400    0.6210    0.2640 C   0  0  0  0  0
    8.6890   -0.4650    0.2810 N   0  0  0  0  0
    6.3780    0.4180    0.3600 C   0  0  0  0  0
    5.5170    1.5170    0.3420 C   0  0  0  0  0
    4.1560    1.3240    0.4320 C   0  0  0  0  0
    3.6400    0.0390    0.5390 C   0  0  0  0  0
    2.2980   -0.1470    0.6270 O   0  0  0  0  0
    1.8610   -0.6130   -0.6520 C   0  0  0  0  0
    1.4660    0.5770   -1.5540 C   0  0  0  0  0
    0.0420    0.7220   -1.3700 O   0  0  0  0  0
   -0.4830   -0.6210   -1.3340 C   0  0  0  0  0
   -1.7570   -0.6310   -0.4620 C   0  0  0  0  0
   -2.8350   -1.2600   -1.1590 O   0  0  0  0  0
   -3.9810   -0.6960   -0.7000 C   0  0  0  0  0
   -4.3630    0.5620   -1.1510 C   0  0  0  0  0
   -5.5260    1.1380   -0.6870 C   0  0  0  0  0
   -6.3200    0.4560    0.2370 C   0  0  0  0  0
   -7.5690    1.0720    0.7370 C   0  0  0  0  0
   -7.9280    2.2520    0.3160 N   0  0  0  0  0
   -8.3520    0.3980    1.6490 N   0  0  0  0  0
   -5.9330   -0.8070    0.6870 C   0  0  0  0  0
   -4.7720   -1.3790    0.2150 C   0  0  0  0  0
   -1.3590   -1.4560    0.7810 C   0  0  0  0  0
    0.0760   -1.3320    0.8620 O   0  0  0  0  0
    0.5610   -1.4340   -0.5120 C   0  0  0  0  0
    4.4940   -1.0570    0.5560 C   0  0  0  0  0
    5.8560   -0.8720    0.4620 C   0  0  0  0  0
    7.7290    2.5900    0.1510 H   0  0  0  0  0
    9.6480   -0.3320    0.2190 H   0  0  0  0  0
    8.3280   -1.3620    0.3600 H   0  0  0  0  0
    5.9180    2.5160    0.2590 H   0  0  0  0  0
    3.4890    2.1740    0.4190 H   0  0  0  0  0
    2.6400   -1.2090   -1.1260 H   0  0  0  0  0
    1.9840    1.4820   -1.2370 H   0  0  0  0  0
    1.6930    0.3540   -2.5960 H   0  0  0  0  0
   -0.6510   -1.0340   -2.3290 H   0  0  0  0  0
   -2.0310    0.3840   -0.1750 H   0  0  0  0  0
   -3.7480    1.0880   -1.8660 H   0  0  0  0  0
   -5.8220    2.1150   -1.0380 H   0  0  0  0  0
   -8.7470    2.6550    0.6440 H   0  0  0  0  0
   -8.0840   -0.4800    1.9630 H   0  0  0  0  0
   -9.1700    0.8010    1.9770 H   0  0  0  0  0
   -6.5450   -1.3360    1.4020 H   0  0  0  0  0
   -4.4720   -2.3560    0.5630 H   0  0  0  0  0
   -1.8270   -1.0440    1.6750 H   0  0  0  0  0
   -1.6430   -2.5000    0.6500 H   0  0  0  0  0
    0.6680   -2.4670   -0.8440 H   0  0  0  0  0
    4.0890   -2.0550    0.6390 H   0  0  0  0  0
    6.5190   -1.7240    0.4750 H   0  0  0  0  0
  1  2  2  0  0  0
  1 29  1  0  0  0
  2  3  1  0  0  0
  2  4  1  0  0  0
  3 30  1  0  0  0
  3 31  1  0  0  0
  4  5  2  0  0  0
  4 28  1  0  0  0
  5  6  1  0  0  0
  5 32  1  0  0  0
  6  7  2  0  0  0
  6 33  1  0  0  0
  7  8  1  0  0  0
  7 27  1  0  0  0
  8  9  1  0  0  0
  9 10  1  0  0  0
  9 26  1  0  0  0
  9 34  1  0  0  0
 10 11  1  0  0  0
 10 35  1  0  0  0
 10 36  1  0  0  0
 11 12  1  0  0  0
 12 13  1  0  0  0
 12 26  1  0  0  0
 12 37  1  0  0  0
 13 14  1  0  0  0
 13 24  1  0  0  0
 13 38  1  0  0  0
 14 15  1  0  0  0
 15 16  2  0  0  0
 15 23  1  0  0  0
 16 17  1  0  0  0
 16 39  1  0  0  0
 17 18  2  0  0  0
 17 40  1  0  0  0
 18 19  1  0  0  0
 18 22  1  0  0  0
 19 20  2  0  0  0
 19 21  1  0  0  0
 20 41  1  0  0  0
 21 42  1  0  0  0
 21 43  1  0  0  0
 22 23  2  0  0  0
 22 44  1  0  0  0
 23 45  1  0  0  0
 24 25  1  0  0  0
 24 46  1  0  0  0
 24 47  1  0  0  0
 25 26  1  0  0  0
 26 48  1  0  0  0
 27 28  2  0  0  0
 27 49  1  0  0  0
 28 50  1  0  0  0
M  END
$$$$
