TL4
  CCTOOLS-0919241034

 50 53  0  0  1  0  0  0  0  0999 V2000
   -6.3090    0.2180    0.4050 C   0  0  0  0  0
   -5.5610   -0.6680    1.1830 C   0  0  0  0  0
   -4.1850   -0.5950    1.1770 C   0  0  0  0  0
   -3.5420    0.3590    0.3980 C   0  0  0  0  0
   -2.1860    0.4280    0.3950 O   0  0  0  0  0
   -1.7460   -0.1530   -0.8350 C   0  0  0  0  0
   -1.4990   -1.6670   -0.6590 C   0  0  0  0  0
   -0.0910   -1.7800   -0.3620 O   0  0  0  0  0
    0.5650   -0.8340   -1.2320 C   0  0  0  0  0
    1.8600   -0.3490   -0.5480 C   0  0  0  0  0
    2.9720   -0.4730   -1.4370 O   0  0  0  0  0
    4.0720   -0.6740   -0.6650 C   0  0  0  0  0
    4.3140   -1.9260   -0.1150 C   0  0  0  0  0
    5.4310   -2.1350    0.6720 C   0  0  0  0  0
    6.3130   -1.1020    0.9150 C   0  0  0  0  0
    6.0780    0.1590    0.3660 C   0  0  0  0  0
    7.0220    1.2700    0.6260 C   0  0  0  0  0
    6.8000    2.4460    0.1130 N   0  0  0  0  0
    8.1340    1.0600    1.4110 N   0  0  0  0  0
    4.9540    0.3680   -0.4310 C   0  0  0  0  0
    1.5850    1.1370   -0.2260 C   0  0  0  0  0
    0.1480    1.2370   -0.1470 O   0  0  0  0  0
   -0.3680    0.4140   -1.2380 C   0  0  0  0  0
   -4.2830    1.2410   -0.3780 C   0  0  0  0  0
   -5.6590    1.1700   -0.3810 C   0  0  0  0  0
   -8.3910   -0.7510    1.1400 N   0  0  0  0  0
   -7.7860    0.1420    0.4090 C   0  0  0  0  0
   -8.5230    1.0170   -0.3600 N   0  0  0  0  0
   -6.0610   -1.4090    1.7890 H   0  0  0  0  0
   -3.6060   -1.2790    1.7790 H   0  0  0  0  0
   -2.4770    0.0250   -1.6230 H   0  0  0  0  0
   -2.0940   -2.0550    0.1680 H   0  0  0  0  0
   -1.7370   -2.2000   -1.5800 H   0  0  0  0  0
    0.7410   -1.2340   -2.2310 H   0  0  0  0  0
    2.0410   -0.9100    0.3680 H   0  0  0  0  0
    3.6280   -2.7380   -0.3020 H   0  0  0  0  0
    5.6150   -3.1110    1.0970 H   0  0  0  0  0
    7.1850   -1.2690    1.5310 H   0  0  0  0  0
    7.4180    3.1740    0.2830 H   0  0  0  0  0
    8.3000    0.1840    1.7930 H   0  0  0  0  0
    8.7520    1.7870    1.5810 H   0  0  0  0  0
    4.7670    1.3420   -0.8590 H   0  0  0  0  0
    2.0380    1.4080    0.7280 H   0  0  0  0  0
    1.9670    1.7740   -1.0230 H   0  0  0  0  0
   -0.3830    0.9420   -2.1910 H   0  0  0  0  0
   -3.7790    1.9810   -0.9830 H   0  0  0  0  0
   -6.2340    1.8570   -0.9840 H   0  0  0  0  0
   -9.3600   -0.8010    1.1420 H   0  0  0  0  0
   -8.0720    1.6830   -0.9030 H   0  0  0  0  0
   -9.4910    0.9650   -0.3600 H   0  0  0  0  0
  1  2  2  0  0  0
  1 25  1  0  0  0
  1 27  1  0  0  0
  2  3  1  0  0  0
  2 29  1  0  0  0
  3  4  2  0  0  0
  3 30  1  0  0  0
  4  5  1  0  0  0
  4 24  1  0  0  0
  5  6  1  0  0  0
  6  7  1  0  0  0
  6 23  1  0  0  0
  6 31  1  0  0  0
  7  8  1  0  0  0
  7 32  1  0  0  0
  7 33  1  0  0  0
  8  9  1  0  0  0
  9 10  1  0  0  0
  9 23  1  0  0  0
  9 34  1  0  0  0
 10 11  1  0  0  0
 10 21  1  0  0  0
 10 35  1  0  0  0
 11 12  1  0  0  0
 12 13  2  0  0  0
 12 20  1  0  0  0
 13 14  1  0  0  0
 13 36  1  0  0  0
 14 15  2  0  0  0
 14 37  1  0  0  0
 15 16  1  0  0  0
 15 38  1  0  0  0
 16 17  1  0  0  0
 16 20  2  0  0  0
 17 18  2  0  0  0
 17 19  1  0  0  0
 18 39  1  0  0  0
 19 40  1  0  0  0
 19 41  1  0  0  0
 20 42  1  0  0  0
 21 22  1  0  0  0
 21 43  1  0  0  0
 21 44  1  0  0  0
 22 23  1  0  0  0
 23 45  1  0  0  0
 24 25  2  0  0  0
 24 46  1  0  0  0
 25 47  1  0  0  0
 26 27  2  0  0  0
 26 48  1  0  0  0
 27 28  1  0  0  0
 28 49  1  0  0  0
 28 50  1  0  0  0
M  END
$$$$
