TYI
  CCTOOLS-1004241125

 24 24  0  0  1  0  0  0  0  0999 V2000
    0.6660    1.1750    3.6090 N   0  0  0  0  0
   -0.5750    0.4090    3.7730 C   0  0  0  0  0
   -0.4750   -0.8990    2.9870 C   0  0  0  0  0
   -0.2620   -0.5930    1.5270 C   0  0  0  0  0
    1.0200   -0.4650    1.0290 C   0  0  0  0  0
    1.2180   -0.1840   -0.3090 C   0  0  0  0  0
   -1.3510   -0.4480    0.6870 C   0  0  0  0  0
   -1.1590   -0.1610   -0.6510 C   0  0  0  0  0
    0.1270   -0.0310   -1.1530 C   0  0  0  0  0
    0.3190    0.2440   -2.4700 O   0  0  0  0  0
   -0.7880    0.1030    5.2330 C   0  0  0  0  0
    0.1610   -0.0290    5.9680 O   0  0  0  0  0
   -2.0330   -0.0220    5.7180 O   0  0  0  0  0
    3.1630    0.0100   -1.0630 I   0  0  0  0  0
   -2.8080    0.0660   -1.9210 I   0  0  0  0  0
    0.8220    1.2660    2.6170 H   0  0  0  0  0
    1.4120    0.5970    3.9680 H   0  0  0  0  0
   -1.4150    0.9940    3.3990 H   0  0  0  0  0
    0.3640   -1.4850    3.3620 H   0  0  0  0  0
   -1.3970   -1.4680    3.1090 H   0  0  0  0  0
    1.8690   -0.5840    1.6860 H   0  0  0  0  0
   -2.3520   -0.5490    1.0790 H   0  0  0  0  0
    0.3770   -0.6050   -2.9280 H   0  0  0  0  0
   -2.1700   -0.2180    6.6550 H   0  0  0  0  0
  1  2  1  0  0  0
  1 16  1  0  0  0
  1 17  1  0  0  0
  2  3  1  0  0  0
  2 11  1  0  0  0
  2 18  1  0  0  0
  3  4  1  0  0  0
  3 19  1  0  0  0
  3 20  1  0  0  0
  4  5  2  0  0  0
  4  7  1  0  0  0
  5  6  1  0  0  0
  5 21  1  0  0  0
  6  9  2  0  0  0
  6 14  1  0  0  0
  7  8  2  0  0  0
  7 22  1  0  0  0
  8  9  1  0  0  0
  8 15  1  0  0  0
  9 10  1  0  0  0
 10 23  1  0  0  0
 11 12  2  0  0  0
 11 13  1  0  0  0
 13 24  1  0  0  0
M  END
$$$$
