UIB
  CCTOOLS-0919241039

 65 69  0  0  1  0  0  0  0  0999 V2000
   -1.5510    0.5830   -5.4970 N   0  0  0  0  0
   -0.1770    0.5940   -5.3930 C   0  0  0  0  0
    0.5500    0.9430   -6.4160 N   0  0  0  0  0
    0.4720    0.2090   -4.1200 C   0  0  0  0  0
    1.8620    0.2190   -4.0120 C   0  0  0  0  0
    2.4620   -0.1400   -2.8220 C   0  0  0  0  0
    1.6870   -0.5100   -1.7380 C   0  0  0  0  0
    2.3480   -0.9010   -0.4410 C   0  0  0  0  0
    2.5730    0.3420    0.4530 C   0  0  0  0  0
    2.6390   -0.2730    1.8820 C   0  0  0  0  0
    1.9320   -1.6340    1.7820 C   0  0  0  0  0
    2.9060   -2.7710    2.0940 C   0  0  0  0  0
    0.7460   -1.6800    2.7480 C   0  0  0  0  0
    1.4450   -1.7530    0.3730 N   0  0  0  0  0
    1.6930   -3.1420   -0.0350 C   0  0  0  0  0
    1.7630    0.7030    2.6920 C   0  0  0  0  0
    0.8650    1.3380    1.7220 N   0  0  0  0  0
   -0.3480    2.0770    2.0760 C   0  0  0  0  0
   -1.5450    1.1720    1.9380 C   0  0  0  0  0
   -1.9670    0.4180    3.0180 C   0  0  0  0  0
   -3.0650   -0.4120    2.8970 C   0  0  0  0  0
   -3.7460   -0.4920    1.6930 C   0  0  0  0  0
   -3.3210    0.2670    0.6060 C   0  0  0  0  0
   -2.2230    1.1020    0.7350 C   0  0  0  0  0
   -4.1460    0.0150   -0.4510 O   0  0  0  0  0
   -4.8290   -1.2080   -0.1230 C   0  0  0  0  0
   -4.8380   -1.2190    1.3160 O   0  0  0  0  0
    1.3150    1.1810    0.4700 C   0  0  0  0  0
    0.7700    1.6280   -0.5160 O   0  0  0  0  0
    2.6390    1.7590    3.3690 C   0  0  0  0  0
    1.7730    2.6320    4.2800 C   0  0  0  0  0
    0.3070   -0.5270   -1.8400 C   0  0  0  0  0
   -0.3030   -0.1640   -3.0230 C   0  0  0  0  0
   -1.9760    0.8350   -6.3310 H   0  0  0  0  0
   -2.0920    0.3230   -4.7350 H   0  0  0  0  0
    0.1240    1.1950   -7.2500 H   0  0  0  0  0
    2.4690    0.5080   -4.8570 H   0  0  0  0  0
    3.5380   -0.1320   -2.7370 H   0  0  0  0  0
    3.2910   -1.4130   -0.6320 H   0  0  0  0  0
    3.4640    0.9100    0.1840 H   0  0  0  0  0
    3.6550   -0.3510    2.2680 H   0  0  0  0  0
    2.3930   -3.7270    1.9930 H   0  0  0  0  0
    3.7440   -2.7330    1.3980 H   0  0  0  0  0
    3.2760   -2.6630    3.1140 H   0  0  0  0  0
    0.2330   -2.6360    2.6470 H   0  0  0  0  0
    1.1060   -1.5670    3.7710 H   0  0  0  0  0
    0.0550   -0.8700    2.5140 H   0  0  0  0  0
    1.3960   -3.2730   -1.0750 H   0  0  0  0  0
    2.7530   -3.3680    0.0710 H   0  0  0  0  0
    1.1120   -3.8150    0.5950 H   0  0  0  0  0
    1.1860    0.1590    3.4390 H   0  0  0  0  0
   -0.2730    2.4270    3.1050 H   0  0  0  0  0
   -0.4610    2.9320    1.4090 H   0  0  0  0  0
   -1.4380    0.4780    3.9570 H   0  0  0  0  0
   -3.3920   -1.0010    3.7420 H   0  0  0  0  0
   -1.8940    1.6960   -0.1040 H   0  0  0  0  0
   -4.2820   -2.0680   -0.5090 H   0  0  0  0  0
   -5.8480   -1.1950   -0.5110 H   0  0  0  0  0
    3.1100    2.3830    2.6090 H   0  0  0  0  0
    3.4090    1.2670    3.9630 H   0  0  0  0  0
    2.4130    3.2890    4.8690 H   0  0  0  0  0
    1.0970    3.2330    3.6710 H   0  0  0  0  0
    1.1930    1.9960    4.9480 H   0  0  0  0  0
   -0.2920   -0.8170   -0.9900 H   0  0  0  0  0
   -1.3800   -0.1740   -3.1000 H   0  0  0  0  0
  1  2  1  0  0  0
  1 34  1  0  0  0
  1 35  1  0  0  0
  2  3  2  0  0  0
  2  4  1  0  0  0
  3 36  1  0  0  0
  4  5  1  0  0  0
  4 33  2  0  0  0
  5  6  2  0  0  0
  5 37  1  0  0  0
  6  7  1  0  0  0
  6 38  1  0  0  0
  7  8  1  0  0  0
  7 32  2  0  0  0
  8  9  1  0  0  0
  8 14  1  0  0  0
  8 39  1  0  0  0
  9 10  1  0  0  0
  9 28  1  0  0  0
  9 40  1  0  0  0
 10 11  1  0  0  0
 10 16  1  0  0  0
 10 41  1  0  0  0
 11 12  1  0  0  0
 11 13  1  0  0  0
 11 14  1  0  0  0
 12 42  1  0  0  0
 12 43  1  0  0  0
 12 44  1  0  0  0
 13 45  1  0  0  0
 13 46  1  0  0  0
 13 47  1  0  0  0
 14 15  1  0  0  0
 15 48  1  0  0  0
 15 49  1  0  0  0
 15 50  1  0  0  0
 16 17  1  0  0  0
 16 30  1  0  0  0
 16 51  1  0  0  0
 17 18  1  0  0  0
 17 28  1  0  0  0
 18 19  1  0  0  0
 18 52  1  0  0  0
 18 53  1  0  0  0
 19 20  1  0  0  0
 19 24  2  0  0  0
 20 21  2  0  0  0
 20 54  1  0  0  0
 21 22  1  0  0  0
 21 55  1  0  0  0
 22 23  2  0  0  0
 22 27  1  0  0  0
 23 24  1  0  0  0
 23 25  1  0  0  0
 24 56  1  0  0  0
 25 26  1  0  0  0
 26 27  1  0  0  0
 26 57  1  0  0  0
 26 58  1  0  0  0
 28 29  2  0  0  0
 30 31  1  0  0  0
 30 59  1  0  0  0
 30 60  1  0  0  0
 31 61  1  0  0  0
 31 62  1  0  0  0
 31 63  1  0  0  0
 32 33  1  0  0  0
 32 64  1  0  0  0
 33 65  1  0  0  0
M  END
$$$$
