UIP
  CCTOOLS-0919241039

 63 68  0  0  1  0  0  0  0  0999 V2000
   -0.8860   -0.1150   -5.1470 N   0  0  0  0  0
   -1.9520   -0.5060   -4.5090 C   0  0  0  0  0
   -2.9670   -1.1430   -5.1890 N   0  0  0  0  0
   -2.0730   -0.2670   -3.0530 C   0  0  0  0  0
   -1.0470    0.3760   -2.3620 C   0  0  0  0  0
   -1.1650    0.5970   -1.0050 C   0  0  0  0  0
   -2.2990    0.1810   -0.3300 C   0  0  0  0  0
   -3.3170   -0.4630   -1.0090 C   0  0  0  0  0
   -3.2130   -0.6840   -2.3670 C   0  0  0  0  0
   -2.4220    0.4250    1.1510 C   0  0  0  0  0
   -1.7130    1.6620    1.5110 N   0  0  0  0  0
   -2.7310    2.5030    2.2410 C   0  0  0  0  0
   -1.8790    3.3760    3.1930 C   0  0  0  0  0
   -0.7540    2.4110    3.6330 C   0  0  0  0  0
   -0.6770    1.3550    2.5190 C   0  0  0  0  0
   -0.9990   -0.0330    3.0880 C   0  0  0  0  0
    0.2970   -0.8680    3.1440 C   0  0  0  0  0
    0.4470   -1.4600    1.8090 N   0  0  0  0  0
   -0.7220   -1.4210    1.1130 C   0  0  0  0  0
   -0.8900   -1.8390   -0.0120 O   0  0  0  0  0
   -1.7840   -0.7480    1.9520 C   0  0  0  0  0
    1.6950   -2.0310    1.2970 C   0  0  0  0  0
    2.4190   -0.9990    0.4720 C   0  0  0  0  0
    3.3260   -0.1470    1.0750 C   0  0  0  0  0
    3.9930    0.8010    0.3220 C   0  0  0  0  0
    3.7540    0.9000   -1.0380 C   0  0  0  0  0
    4.2690    1.7320   -1.9890 O   0  0  0  0  0
    3.3630    1.6480   -3.1050 C   0  0  0  0  0
    2.7820    0.3370   -2.9760 O   0  0  0  0  0
    2.8400    0.0420   -1.6450 C   0  0  0  0  0
    2.1790   -0.9090   -0.8850 C   0  0  0  0  0
    0.1720   -1.9690    4.1990 C   0  0  0  0  0
    1.5130   -2.6930    4.3420 C   0  0  0  0  0
   -0.8070   -0.2720   -6.1010 H   0  0  0  0  0
   -2.8880   -1.3000   -6.1430 H   0  0  0  0  0
   -3.7610   -1.4340   -4.7140 H   0  0  0  0  0
   -0.1610    0.7020   -2.8880 H   0  0  0  0  0
   -0.3720    1.0960   -0.4690 H   0  0  0  0  0
   -4.2000   -0.7860   -0.4770 H   0  0  0  0  0
   -4.0110   -1.1840   -2.8970 H   0  0  0  0  0
   -3.4740    0.5100    1.4240 H   0  0  0  0  0
   -3.4150    1.8720    2.8090 H   0  0  0  0  0
   -3.2810    3.1280    1.5370 H   0  0  0  0  0
   -2.4680    3.6980    4.0520 H   0  0  0  0  0
   -1.4660    4.2350    2.6640 H   0  0  0  0  0
   -1.0080    1.9410    4.5830 H   0  0  0  0  0
    0.1920    2.9450    3.7140 H   0  0  0  0  0
    0.3110    1.3580    2.0600 H   0  0  0  0  0
   -1.5340    0.0010    4.0370 H   0  0  0  0  0
    1.1490   -0.2270    3.3690 H   0  0  0  0  0
   -2.5290   -1.4520    2.3220 H   0  0  0  0  0
    1.4690   -2.8990    0.6770 H   0  0  0  0  0
    2.3250   -2.3360    2.1330 H   0  0  0  0  0
    3.5140   -0.2230    2.1360 H   0  0  0  0  0
    4.7010    1.4650    0.7950 H   0  0  0  0  0
    3.9050    1.7360   -4.0460 H   0  0  0  0  0
    2.5930    2.4160   -3.0320 H   0  0  0  0  0
    1.4730   -1.5790   -1.3540 H   0  0  0  0  0
   -0.5930   -2.6820    3.8920 H   0  0  0  0  0
   -0.1050   -1.5260    5.1550 H   0  0  0  0  0
    1.4670   -3.3780    5.1880 H   0  0  0  0  0
    1.7230   -3.2530    3.4310 H   0  0  0  0  0
    2.3040   -1.9620    4.5090 H   0  0  0  0  0
  1  2  2  0  0  0
  1 34  1  0  0  0
  2  3  1  0  0  0
  2  4  1  0  0  0
  3 35  1  0  0  0
  3 36  1  0  0  0
  4  5  2  0  0  0
  4  9  1  0  0  0
  5  6  1  0  0  0
  5 37  1  0  0  0
  6  7  2  0  0  0
  6 38  1  0  0  0
  7  8  1  0  0  0
  7 10  1  0  0  0
  8  9  2  0  0  0
  8 39  1  0  0  0
  9 40  1  0  0  0
 10 11  1  0  0  0
 10 21  1  0  0  0
 10 41  1  0  0  0
 11 12  1  0  0  0
 11 15  1  0  0  0
 12 13  1  0  0  0
 12 42  1  0  0  0
 12 43  1  0  0  0
 13 14  1  0  0  0
 13 44  1  0  0  0
 13 45  1  0  0  0
 14 15  1  0  0  0
 14 46  1  0  0  0
 14 47  1  0  0  0
 15 16  1  0  0  0
 15 48  1  0  0  0
 16 17  1  0  0  0
 16 21  1  0  0  0
 16 49  1  0  0  0
 17 18  1  0  0  0
 17 32  1  0  0  0
 17 50  1  0  0  0
 18 19  1  0  0  0
 18 22  1  0  0  0
 19 20  2  0  0  0
 19 21  1  0  0  0
 21 51  1  0  0  0
 22 23  1  0  0  0
 22 52  1  0  0  0
 22 53  1  0  0  0
 23 24  2  0  0  0
 23 31  1  0  0  0
 24 25  1  0  0  0
 24 54  1  0  0  0
 25 26  2  0  0  0
 25 55  1  0  0  0
 26 27  1  0  0  0
 26 30  1  0  0  0
 27 28  1  0  0  0
 28 29  1  0  0  0
 28 56  1  0  0  0
 28 57  1  0  0  0
 29 30  1  0  0  0
 30 31  2  0  0  0
 31 58  1  0  0  0
 32 33  1  0  0  0
 32 59  1  0  0  0
 32 60  1  0  0  0
 33 61  1  0  0  0
 33 62  1  0  0  0
 33 63  1  0  0  0
M  END
$$$$
