UIQ
  CCTOOLS-0919241039

 66 71  0  0  1  0  0  0  0  0999 V2000
   -5.3850   -3.2030   -0.8510 N   0  0  0  0  0
   -4.7550   -2.1240   -0.4830 C   0  0  0  0  0
   -5.4330   -0.9290   -0.3890 N   0  0  0  0  0
   -3.3090   -2.1830   -0.1670 C   0  0  0  0  0
   -2.6200   -3.3910   -0.2610 C   0  0  0  0  0
   -1.2730   -3.4390    0.0350 C   0  0  0  0  0
   -0.6070   -2.2920    0.4250 C   0  0  0  0  0
   -1.2860   -1.0910    0.5260 C   0  0  0  0  0
   -2.6320   -1.0290    0.2270 C   0  0  0  0  0
    0.8640   -2.3510    0.7470 C   0  0  0  0  0
    1.1560   -1.4820    1.8970 N   0  0  0  0  0
    1.8630   -2.3670    2.8930 C   0  0  0  0  0
    2.7610   -1.3900    3.6890 C   0  0  0  0  0
    3.2260   -0.3890    2.6070 C   0  0  0  0  0
    2.1610   -0.4720    1.5020 C   0  0  0  0  0
    2.7980   -0.9590    0.1930 C   0  0  0  0  0
    2.8720    0.2210   -0.8000 C   0  0  0  0  0
    1.5640    0.2650   -1.4630 N   0  0  0  0  0
    0.8850   -0.9040   -1.3040 C   0  0  0  0  0
   -0.2180   -1.1480   -1.7450 O   0  0  0  0  0
    1.7080   -1.8530   -0.4640 C   0  0  0  0  0
    1.0590    1.4180   -2.2130 C   0  0  0  0  0
    0.4070    2.3890   -1.2630 C   0  0  0  0  0
    1.1580    3.3910   -0.6780 C   0  0  0  0  0
    0.5640    4.2850    0.1940 C   0  0  0  0  0
   -0.7860    4.1780    0.4830 C   0  0  0  0  0
   -1.6000    4.9160    1.2930 O   0  0  0  0  0
   -2.7680    4.1020    1.5100 C   0  0  0  0  0
   -2.8310    3.2740    0.3330 O   0  0  0  0  0
   -1.5430    3.1680   -0.1070 C   0  0  0  0  0
   -0.9420    2.2800   -0.9840 C   0  0  0  0  0
    3.9780   -0.0220   -1.8290 C   0  0  0  0  0
    5.3370   -0.0220   -1.1260 C   0  0  0  0  0
    3.7540   -1.3750   -2.5080 C   0  0  0  0  0
   -6.3320   -3.1650   -1.0590 H   0  0  0  0  0
   -6.3800   -0.8910   -0.5960 H   0  0  0  0  0
   -4.9640   -0.1250   -0.1150 H   0  0  0  0  0
   -3.1400   -4.2880   -0.5660 H   0  0  0  0  0
   -0.7380   -4.3750   -0.0380 H   0  0  0  0  0
   -0.7610   -0.1980    0.8320 H   0  0  0  0  0
   -3.1600   -0.0900    0.3030 H   0  0  0  0  0
    1.1490   -3.3770    0.9800 H   0  0  0  0  0
    2.4690   -3.1150    2.3820 H   0  0  0  0  0
    1.1390   -2.8470    3.5530 H   0  0  0  0  0
    3.6130   -1.9140    4.1220 H   0  0  0  0  0
    2.1860   -0.8810    4.4630 H   0  0  0  0  0
    4.2010   -0.6810    2.2150 H   0  0  0  0  0
    3.2690    0.6200    3.0170 H   0  0  0  0  0
    1.6870    0.4990    1.3570 H   0  0  0  0  0
    3.7530   -1.4650    0.3370 H   0  0  0  0  0
    3.0540    1.1530   -0.2650 H   0  0  0  0  0
    2.1210   -2.6750   -1.0480 H   0  0  0  0  0
    1.8870    1.9100   -2.7240 H   0  0  0  0  0
    0.3280    1.0820   -2.9480 H   0  0  0  0  0
    2.2120    3.4760   -0.9010 H   0  0  0  0  0
    1.1540    5.0660    0.6510 H   0  0  0  0  0
   -2.6480    3.4900    2.4030 H   0  0  0  0  0
   -3.6590    4.7250    1.5880 H   0  0  0  0  0
   -1.5280    1.4990   -1.4470 H   0  0  0  0  0
    3.9570    0.7690   -2.5790 H   0  0  0  0  0
    6.1220   -0.2280   -1.8540 H   0  0  0  0  0
    5.5100    0.9520   -0.6700 H   0  0  0  0  0
    5.3470   -0.7920   -0.3550 H   0  0  0  0  0
    3.7750   -2.1650   -1.7580 H   0  0  0  0  0
    2.7860   -1.3740   -3.0090 H   0  0  0  0  0
    4.5420   -1.5480   -3.2410 H   0  0  0  0  0
  1  2  2  0  0  0
  1 35  1  0  0  0
  2  3  1  0  0  0
  2  4  1  0  0  0
  3 36  1  0  0  0
  3 37  1  0  0  0
  4  5  2  0  0  0
  4  9  1  0  0  0
  5  6  1  0  0  0
  5 38  1  0  0  0
  6  7  2  0  0  0
  6 39  1  0  0  0
  7  8  1  0  0  0
  7 10  1  0  0  0
  8  9  2  0  0  0
  8 40  1  0  0  0
  9 41  1  0  0  0
 10 11  1  0  0  0
 10 21  1  0  0  0
 10 42  1  0  0  0
 11 12  1  0  0  0
 11 15  1  0  0  0
 12 13  1  0  0  0
 12 43  1  0  0  0
 12 44  1  0  0  0
 13 14  1  0  0  0
 13 45  1  0  0  0
 13 46  1  0  0  0
 14 15  1  0  0  0
 14 47  1  0  0  0
 14 48  1  0  0  0
 15 16  1  0  0  0
 15 49  1  0  0  0
 16 17  1  0  0  0
 16 21  1  0  0  0
 16 50  1  0  0  0
 17 18  1  0  0  0
 17 32  1  0  0  0
 17 51  1  0  0  0
 18 19  1  0  0  0
 18 22  1  0  0  0
 19 20  2  0  0  0
 19 21  1  0  0  0
 21 52  1  0  0  0
 22 23  1  0  0  0
 22 53  1  0  0  0
 22 54  1  0  0  0
 23 24  2  0  0  0
 23 31  1  0  0  0
 24 25  1  0  0  0
 24 55  1  0  0  0
 25 26  2  0  0  0
 25 56  1  0  0  0
 26 27  1  0  0  0
 26 30  1  0  0  0
 27 28  1  0  0  0
 28 29  1  0  0  0
 28 57  1  0  0  0
 28 58  1  0  0  0
 29 30  1  0  0  0
 30 31  2  0  0  0
 31 59  1  0  0  0
 32 33  1  0  0  0
 32 34  1  0  0  0
 32 60  1  0  0  0
 33 61  1  0  0  0
 33 62  1  0  0  0
 33 63  1  0  0  0
 34 64  1  0  0  0
 34 65  1  0  0  0
 34 66  1  0  0  0
M  END
$$$$
