UIR
  CCTOOLS-0919241039

 64 70  0  0  1  0  0  0  0  0999 V2000
    5.9960   -1.7570    1.1610 N   0  0  0  0  0
    5.1230   -0.8940    0.7270 C   0  0  0  0  0
    3.7560   -1.3390    0.3700 C   0  0  0  0  0
    3.4010   -2.6810    0.4990 C   0  0  0  0  0
    2.1260   -3.0890    0.1650 C   0  0  0  0  0
    1.2010   -2.1700   -0.2970 C   0  0  0  0  0
   -0.1900   -2.6230   -0.6600 C   0  0  0  0  0
   -0.6500   -1.9030   -1.8580 N   0  0  0  0  0
   -1.1130   -3.0080   -2.8260 C   0  0  0  0  0
   -2.1930   -2.3060   -3.6840 C   0  0  0  0  0
   -2.9080   -1.3940   -2.6610 C   0  0  0  0  0
   -1.8830   -1.1740   -1.5380 C   0  0  0  0  0
   -2.4230   -1.7390   -0.2160 C   0  0  0  0  0
   -3.8450   -1.0590    1.7530 C   0  0  0  0  0
   -2.8150   -0.5810    0.7270 C   0  0  0  0  0
   -4.4510   -0.0100    2.6870 C   0  0  0  0  0
   -5.2940   -0.6090    1.5600 C   0  0  0  0  0
   -1.5740   -0.1830    1.4010 N   0  0  0  0  0
   -0.6230   -1.1430    1.2980 C   0  0  0  0  0
    0.4900   -1.0700    1.7740 O   0  0  0  0  0
   -1.1560   -2.3030    0.4890 C   0  0  0  0  0
   -1.3870    1.0870    2.1060 C   0  0  0  0  0
   -0.9920    2.1560    1.1200 C   0  0  0  0  0
    0.3370    2.3270    0.7830 C   0  0  0  0  0
    0.7020    3.3060   -0.1270 C   0  0  0  0  0
    1.9190    3.6720   -0.6240 O   0  0  0  0  0
    1.6360    4.4460   -1.8040 C   0  0  0  0  0
    0.3330    5.0010   -1.5450 O   0  0  0  0  0
   -0.2740    4.1230   -0.6940 C   0  0  0  0  0
   -1.6040    3.9490   -0.3480 C   0  0  0  0  0
   -1.9610    2.9670    0.5570 C   0  0  0  0  0
    1.5470   -0.8370   -0.4270 C   0  0  0  0  0
    2.8180   -0.4160   -0.0900 C   0  0  0  0  0
    5.4710    0.4330    0.5980 N   0  0  0  0  0
    0.0000    0.0000    0.0000 H   0  0  0  0  0
    5.7510   -2.6920    1.2510 H   0  0  0  0  0
    4.1220   -3.4000    0.8580 H   0  0  0  0  0
    1.8490   -4.1290    0.2640 H   0  0  0  0  0
   -0.1890   -3.6950   -0.8530 H   0  0  0  0  0
   -1.5420   -3.8520   -2.2860 H   0  0  0  0  0
   -0.2810   -3.3340   -3.4490 H   0  0  0  0  0
   -2.8880   -3.0350   -4.1020 H   0  0  0  0  0
   -1.7330   -1.7120   -4.4740 H   0  0  0  0  0
   -3.7980   -1.8880   -2.2700 H   0  0  0  0  0
   -3.1740   -0.4430   -3.1220 H   0  0  0  0  0
   -1.6550   -0.1140   -1.4330 H   0  0  0  0  0
   -3.2150   -2.4760   -0.3510 H   0  0  0  0  0
   -3.6770   -2.0570    2.1580 H   0  0  0  0  0
   -3.2150    0.2540    0.1530 H   0  0  0  0  0
   -4.6820   -0.3180    3.7070 H   0  0  0  0  0
   -4.1150    1.0200    2.5720 H   0  0  0  0  0
   -5.5140    0.0280    0.7030 H   0  0  0  0  0
   -6.0800   -1.3110    1.8380 H   0  0  0  0  0
   -1.3720   -3.1750    1.1060 H   0  0  0  0  0
   -2.3180    1.3710    2.5960 H   0  0  0  0  0
   -0.6020    0.9760    2.8540 H   0  0  0  0  0
    1.0920    1.6960    1.2280 H   0  0  0  0  0
    1.6120    3.8060   -2.6860 H   0  0  0  0  0
    2.3730    5.2410   -1.9270 H   0  0  0  0  0
   -2.3620    4.5810   -0.7860 H   0  0  0  0  0
   -2.9980    2.8330    0.8260 H   0  0  0  0  0
    0.8210   -0.1240   -0.7890 H   0  0  0  0  0
    3.0870    0.6250   -0.1920 H   0  0  0  0  0
    4.8220    1.0750    0.2710 H   0  0  0  0  0
  1  2  1  0  0  0
  1 35  1  0  0  0
  1 36  1  0  0  0
  2  3  1  0  0  0
  2 34  2  0  0  0
  3  4  2  0  0  0
  3 33  1  0  0  0
  4  5  1  0  0  0
  4 37  1  0  0  0
  5  6  2  0  0  0
  5 38  1  0  0  0
  6  7  1  0  0  0
  6 32  1  0  0  0
  7  8  1  0  0  0
  7 21  1  0  0  0
  7 39  1  0  0  0
  8  9  1  0  0  0
  8 12  1  0  0  0
  9 10  1  0  0  0
  9 40  1  0  0  0
  9 41  1  0  0  0
 10 11  1  0  0  0
 10 42  1  0  0  0
 10 43  1  0  0  0
 11 12  1  0  0  0
 11 44  1  0  0  0
 11 45  1  0  0  0
 12 13  1  0  0  0
 12 46  1  0  0  0
 13 15  1  0  0  0
 13 21  1  0  0  0
 13 47  1  0  0  0
 14 15  1  0  0  0
 14 16  1  0  0  0
 14 17  1  0  0  0
 14 48  1  0  0  0
 15 18  1  0  0  0
 15 49  1  0  0  0
 16 17  1  0  0  0
 16 50  1  0  0  0
 16 51  1  0  0  0
 17 52  1  0  0  0
 17 53  1  0  0  0
 18 19  1  0  0  0
 18 22  1  0  0  0
 19 20  2  0  0  0
 19 21  1  0  0  0
 21 54  1  0  0  0
 22 23  1  0  0  0
 22 55  1  0  0  0
 22 56  1  0  0  0
 23 24  2  0  0  0
 23 31  1  0  0  0
 24 25  1  0  0  0
 24 57  1  0  0  0
 25 26  1  0  0  0
 25 29  2  0  0  0
 26 27  1  0  0  0
 27 28  1  0  0  0
 27 58  1  0  0  0
 27 59  1  0  0  0
 28 29  1  0  0  0
 29 30  1  0  0  0
 30 31  2  0  0  0
 30 60  1  0  0  0
 31 61  1  0  0  0
 32 33  2  0  0  0
 32 62  1  0  0  0
 33 63  1  0  0  0
 34 64  1  0  0  0
M  END
$$$$
