UIZ
  CCTOOLS-0919241039

 70 76  0  0  1  0  0  0  0  0999 V2000
    8.1010   -0.3620   -5.1860 N   0  0  0  0  0
    7.0850   -1.0160   -5.7090 C   0  0  0  0  0
    7.1170   -1.2710   -7.0760 N   0  0  0  0  0
    6.0080   -1.4230   -4.8210 C   0  0  0  0  0
    4.9100   -2.1180   -5.3290 C   0  0  0  0  0
    3.8770   -2.5090   -4.4770 C   0  0  0  0  0
    3.9400   -2.2050   -3.1150 C   0  0  0  0  0
    2.8190   -2.6300   -2.1910 C   0  0  0  0  0
    2.9570   -4.0440   -1.6230 C   0  0  0  0  0
    4.2770   -4.4420   -0.9660 C   0  0  0  0  0
    5.3880   -4.2880   -1.4520 O   0  0  0  0  0
    3.9570   -5.0650    0.2460 N   0  0  0  0  0
    4.9230   -5.7250    1.1030 C   0  0  0  0  0
    5.0760   -7.1790    0.7610 C   0  0  0  0  0
    6.0360   -7.5640   -0.1840 C   0  0  0  0  0
    6.1960   -8.9110   -0.5170 C   0  0  0  0  0
    5.3810   -9.8280    0.1140 C   0  0  0  0  0
    5.3930  -11.1750   -0.0810 O   0  0  0  0  0
    4.3530  -11.5940    0.8270 C   0  0  0  0  0
    3.7440  -10.4990    1.5420 O   0  0  0  0  0
    4.4390   -9.4420    1.0410 C   0  0  0  0  0
    4.2620   -8.1190    1.3880 C   0  0  0  0  0
    2.5220   -5.1530    0.4640 C   0  0  0  0  0
    1.9780   -4.0500   -0.4430 C   0  0  0  0  0
    2.0810   -2.6160    0.0900 C   0  0  0  0  0
    0.7680   -1.9750    0.5180 C   0  0  0  0  0
    0.9530   -0.5280    0.1010 C   0  0  0  0  0
    1.6890   -0.6580   -1.2220 C   0  0  0  0  0
    2.6120   -1.7790   -1.0060 N   0  0  0  0  0
    5.0390   -1.5090   -2.6090 C   0  0  0  0  0
    6.0720   -1.1180   -3.4610 C   0  0  0  0  0
    2.0760   -5.0630    1.9160 C   0  0  0  0  0
    0.5820   -5.2000    2.0510 C   0  0  0  0  0
   -0.0700   -4.5590    3.0940 C   0  0  0  0  0
   -1.4540   -4.6850    3.2200 C   0  0  0  0  0
   -2.1700   -5.4510    2.3000 C   0  0  0  0  0
   -1.5030   -6.0910    1.2550 C   0  0  0  0  0
   -0.1200   -5.9650    1.1300 C   0  0  0  0  0
    8.7820   -0.1400   -5.9210 H   0  0  0  0  0
    7.8920   -0.9630   -7.6550 H   0  0  0  0  0
    6.3790   -1.7810   -7.5470 H   0  0  0  0  0
    4.8490   -2.3600   -6.3870 H   0  0  0  0  0
    3.0260   -3.0500   -4.8810 H   0  0  0  0  0
    1.9100   -2.6340   -2.8080 H   0  0  0  0  0
    2.7070   -4.8130   -2.3640 H   0  0  0  0  0
    4.5910   -5.6050    2.1400 H   0  0  0  0  0
    5.8760   -5.1950    1.0030 H   0  0  0  0  0
    6.6660   -6.8190   -0.6650 H   0  0  0  0  0
    6.9370   -9.2190   -1.2470 H   0  0  0  0  0
    3.5760  -12.1130    0.2540 H   0  0  0  0  0
    4.7820  -12.2930    1.5530 H   0  0  0  0  0
    3.5160   -7.8280    2.1200 H   0  0  0  0  0
    2.2170   -6.1310    0.0700 H   0  0  0  0  0
    0.9590   -4.2760   -0.7800 H   0  0  0  0  0
    2.7960   -2.5490    0.9210 H   0  0  0  0  0
    0.5860   -2.0730    1.5920 H   0  0  0  0  0
   -0.0870   -2.4060   -0.0160 H   0  0  0  0  0
   -0.0000   -0.0000   -0.0000 H   0  0  0  0  0
    1.5690    0.0050    0.8350 H   0  0  0  0  0
    0.9590   -0.8660   -2.0140 H   0  0  0  0  0
    2.2270    0.2580   -1.4810 H   0  0  0  0  0
    5.0990   -1.2680   -1.5510 H   0  0  0  0  0
    6.9220   -0.5760   -3.0550 H   0  0  0  0  0
    2.4000   -4.1070    2.3430 H   0  0  0  0  0
    2.5730   -5.8430    2.5040 H   0  0  0  0  0
    0.4790   -3.9600    3.8150 H   0  0  0  0  0
   -1.9730   -4.1870    4.0330 H   0  0  0  0  0
   -3.2470   -5.5500    2.3980 H   0  0  0  0  0
   -2.0610   -6.6880    0.5400 H   0  0  0  0  0
    0.3920   -6.4670    0.3130 H   0  0  0  0  0
  1  2  2  0  0  0
  1 39  1  0  0  0
  2  3  1  0  0  0
  2  4  1  0  0  0
  3 40  1  0  0  0
  3 41  1  0  0  0
  4  5  2  0  0  0
  4 31  1  0  0  0
  5  6  1  0  0  0
  5 42  1  0  0  0
  6  7  2  0  0  0
  6 43  1  0  0  0
  7  8  1  0  0  0
  7 30  1  0  0  0
  8  9  1  0  0  0
  8 29  1  0  0  0
  8 44  1  0  0  0
  9 10  1  0  0  0
  9 24  1  0  0  0
  9 45  1  0  0  0
 10 11  2  0  0  0
 10 12  1  0  0  0
 12 13  1  0  0  0
 12 23  1  0  0  0
 13 14  1  0  0  0
 13 46  1  0  0  0
 13 47  1  0  0  0
 14 15  2  0  0  0
 14 22  1  0  0  0
 15 16  1  0  0  0
 15 48  1  0  0  0
 16 17  2  0  0  0
 16 49  1  0  0  0
 17 18  1  0  0  0
 17 21  1  0  0  0
 18 19  1  0  0  0
 19 20  1  0  0  0
 19 50  1  0  0  0
 19 51  1  0  0  0
 20 21  1  0  0  0
 21 22  2  0  0  0
 22 52  1  0  0  0
 23 24  1  0  0  0
 23 32  1  0  0  0
 23 53  1  0  0  0
 24 25  1  0  0  0
 24 54  1  0  0  0
 25 26  1  0  0  0
 25 29  1  0  0  0
 25 55  1  0  0  0
 26 27  1  0  0  0
 26 56  1  0  0  0
 26 57  1  0  0  0
 27 28  1  0  0  0
 27 58  1  0  0  0
 27 59  1  0  0  0
 28 29  1  0  0  0
 28 60  1  0  0  0
 28 61  1  0  0  0
 30 31  2  0  0  0
 30 62  1  0  0  0
 31 63  1  0  0  0
 32 33  1  0  0  0
 32 64  1  0  0  0
 32 65  1  0  0  0
 33 34  2  0  0  0
 33 38  1  0  0  0
 34 35  1  0  0  0
 34 66  1  0  0  0
 35 36  2  0  0  0
 35 67  1  0  0  0
 36 37  1  0  0  0
 36 68  1  0  0  0
 37 38  2  0  0  0
 37 69  1  0  0  0
 38 70  1  0  0  0
M  END
$$$$
