VN1
  CCTOOLS-0919241045

 66 68  0  0  1  0  0  0  0  0999 V2000
    5.5440   -1.0990   -1.4300 C   0  0  0  0  0
   -5.4880   -0.8060   -0.0980 C   0  0  0  0  0
   -6.9470   -0.5980   -0.2280 C   0  0  0  0  0
   -4.5990    0.1480   -0.5980 C   0  0  0  0  0
   -3.2370   -0.0500   -0.4740 C   0  0  0  0  0
   -2.9330    2.0300   -1.5870 C   0  0  0  0  0
    3.6840    0.0140    0.5230 C   0  0  0  0  0
    3.1660    0.8590   -0.3980 C   0  0  0  0  0
    2.7380    3.3310   -0.4710 C   0  0  0  0  0
    1.7110    4.0120    0.4360 C   0  0  0  0  0
    1.2290    5.3060   -0.2220 C   0  0  0  0  0
    4.2390   -1.8080   -1.0650 C   0  0  0  0  0
    0.2020    5.9880    0.6850 C   0  0  0  0  0
    4.4230   -3.3200   -1.2100 C   0  0  0  0  0
    4.6730   -3.6650   -2.6790 C   0  0  0  0  0
    3.8650   -1.4760    0.3810 C   0  0  0  0  0
    1.3670   -1.7010    0.4720 C   0  0  0  0  0
    0.5170   -2.6340    0.9610 C   0  0  0  0  0
   -0.9880   -2.5930    0.9200 C   0  0  0  0  0
   -2.7540   -1.1990    0.1500 C   0  0  0  0  0
   -3.6380   -2.1460    0.6460 C   0  0  0  0  0
   -4.9980   -1.9510    0.5300 C   0  0  0  0  0
    2.6150   -2.1550    0.7300 N   0  0  0  0  0
   -7.8240   -1.5370    0.2710 N   0  0  0  0  0
   -7.4030    0.4730   -0.8140 N   0  0  0  0  0
    1.2770   -3.6000    1.4890 N   0  0  0  0  0
    2.5150   -3.2860    1.3360 N   0  0  0  0  0
    3.1990    2.0910    0.1590 N   0  0  0  0  0
   -0.2610    7.2310    0.0530 N   0  0  0  0  0
    3.7040    1.9870    1.3380 N   0  0  0  0  0
    4.0100    0.7620    1.5840 N   0  0  0  0  0
   -1.4140   -1.3930    0.2710 O   0  0  0  0  0
   -2.3680    0.8760   -0.9600 O   0  0  0  0  0
    5.4140   -0.0210   -1.3270 H   0  0  0  0  0
    6.3390   -1.4340   -0.7630 H   0  0  0  0  0
    5.8110   -1.3350   -2.4600 H   0  0  0  0  0
   -4.9750    1.0380   -1.0800 H   0  0  0  0  0
   -2.1330    2.6860   -1.9290 H   0  0  0  0  0
   -3.5380    1.7200   -2.4390 H   0  0  0  0  0
   -3.5590    2.5620   -0.8710 H   0  0  0  0  0
    2.8010    0.6010   -1.3820 H   0  0  0  0  0
    2.2780    3.1010   -1.4320 H   0  0  0  0  0
    3.5860    3.9980   -0.6240 H   0  0  0  0  0
    0.8620    3.3450    0.5890 H   0  0  0  0  0
    2.1700    4.2420    1.3970 H   0  0  0  0  0
    2.0770    5.9730   -0.3750 H   0  0  0  0  0
    0.7690    5.0760   -1.1830 H   0  0  0  0  0
    3.4450   -1.4730   -1.7320 H   0  0  0  0  0
   -0.6460    5.3210    0.8380 H   0  0  0  0  0
    0.6620    6.2180    1.6460 H   0  0  0  0  0
    5.2740   -3.6420   -0.6100 H   0  0  0  0  0
    3.5230   -3.8300   -0.8650 H   0  0  0  0  0
    5.5730   -3.1550   -3.0230 H   0  0  0  0  0
    4.8040   -4.7420   -2.7820 H   0  0  0  0  0
    3.8220   -3.3430   -3.2780 H   0  0  0  0  0
    4.6600   -1.8110    1.0480 H   0  0  0  0  0
    1.1020   -0.7820   -0.0290 H   0  0  0  0  0
   -1.3610   -3.4560    0.3680 H   0  0  0  0  0
   -1.3810   -2.6150    1.9370 H   0  0  0  0  0
   -3.2600   -3.0360    1.1280 H   0  0  0  0  0
   -5.6850   -2.6880    0.9200 H   0  0  0  0  0
   -7.4840   -2.3340    0.7070 H   0  0  0  0  0
   -8.7800   -1.4010    0.1860 H   0  0  0  0  0
   -8.3600    0.6090   -0.8990 H   0  0  0  0  0
   -0.9400    7.7000    0.6330 H   0  0  0  0  0
    0.5160    7.8390   -0.1590 H   0  0  0  0  0
  1 12  1  0  0  0
  1 34  1  0  0  0
  1 35  1  0  0  0
  1 36  1  0  0  0
  2  3  1  0  0  0
  2 22  2  0  0  0
  3 24  1  0  0  0
  4  2  1  0  0  0
  4 37  1  0  0  0
  5  4  2  0  0  0
  5 20  1  0  0  0
  6 33  1  0  0  0
  6 38  1  0  0  0
  6 39  1  0  0  0
  6 40  1  0  0  0
  7 16  1  0  0  0
  7  8  2  0  0  0
  8 41  1  0  0  0
  9 10  1  0  0  0
  9 42  1  0  0  0
  9 43  1  0  0  0
 10 11  1  0  0  0
 10 44  1  0  0  0
 10 45  1  0  0  0
 11 13  1  0  0  0
 11 46  1  0  0  0
 11 47  1  0  0  0
 12 16  1  0  0  0
 12 48  1  0  0  0
 13 29  1  0  0  0
 13 49  1  0  0  0
 13 50  1  0  0  0
 14 12  1  0  0  0
 14 15  1  0  0  0
 14 51  1  0  0  0
 14 52  1  0  0  0
 15 53  1  0  0  0
 15 54  1  0  0  0
 15 55  1  0  0  0
 16 23  1  0  0  0
 16 56  1  0  0  0
 17 23  1  0  0  0
 17 18  2  0  0  0
 17 57  1  0  0  0
 18 26  1  0  0  0
 19 32  1  0  0  0
 19 18  1  0  0  0
 19 58  1  0  0  0
 19 59  1  0  0  0
 20 21  2  0  0  0
 21 22  1  0  0  0
 21 60  1  0  0  0
 22 61  1  0  0  0
 23 27  1  0  0  0
 24 62  1  0  0  0
 24 63  1  0  0  0
 25  3  2  0  0  0
 25 64  1  0  0  0
 27 26  2  0  0  0
 28  8  1  0  0  0
 28  9  1  0  0  0
 29 65  1  0  0  0
 29 66  1  0  0  0
 30 28  1  0  0  0
 31 30  2  0  0  0
 31  7  1  0  0  0
 32 20  1  0  0  0
 33  5  1  0  0  0
M  END
$$$$
