XPE
  CCTOOLS-0919241036

 73 72  0  0  0  0  0  0  0  0999 V2000
    0.6530   -0.3920   12.8160 O   0  0  0  0  0
    0.7070   -1.5610   11.9960 C   0  0  0  0  0
   -0.5150   -1.5960   11.0770 C   0  0  0  0  0
   -0.5210   -0.4320   10.2480 O   0  0  0  0  0
   -1.6800   -0.5220    9.4170 C   0  0  0  0  0
   -1.7470    0.6990    8.5000 C   0  0  0  0  0
   -0.5770    0.7450    7.6810 O   0  0  0  0  0
   -0.6980    1.9020    6.8510 C   0  0  0  0  0
    0.5290    2.0100    5.9440 C   0  0  0  0  0
    0.6200    0.8430    5.1240 O   0  0  0  0  0
    1.7800    1.0030    4.3050 C   0  0  0  0  0
    1.9360   -0.2180    3.3980 C   0  0  0  0  0
    0.7800   -0.3450    2.5670 O   0  0  0  0  0
    0.9860   -1.4980    1.7480 C   0  0  0  0  0
   -0.2210   -1.6930    0.8300 C   0  0  0  0  0
   -0.3790   -0.5400    0.0000 O   0  0  0  0  0
   -1.5170   -0.7820   -0.8300 C   0  0  0  0  0
   -1.7430    0.4200   -1.7480 C   0  0  0  0  0
   -0.5890    0.6170   -2.5670 O   0  0  0  0  0
   -0.8610    1.7480   -3.3980 C   0  0  0  0  0
    0.3410    2.0150   -4.3050 C   0  0  0  0  0
    0.5830    0.8690   -5.1240 O   0  0  0  0  0
    1.7120    1.1790   -5.9440 C   0  0  0  0  0
    2.0260   -0.0120   -6.8510 C   0  0  0  0  0
    0.8960   -0.2900   -7.6810 O   0  0  0  0  0
    1.2500   -1.4070   -8.5000 C   0  0  0  0  0
    0.0770   -1.7580   -9.4170 C   0  0  0  0  0
   -0.2300   -0.6360  -10.2480 O   0  0  0  0  0
   -1.3270   -1.0250  -11.0770 C   0  0  0  0  0
   -1.7080    0.1360  -11.9960 C   0  0  0  0  0
   -0.5900    0.4820  -12.8160 O   0  0  0  0  0
    1.4400   -0.4080   13.3790 H   0  0  0  0  0
    0.7120   -2.4480   12.6290 H   0  0  0  0  0
    1.6150   -1.5400   11.3930 H   0  0  0  0  0
   -1.4220   -1.6170   11.6800 H   0  0  0  0  0
   -0.4740   -2.4870   10.4510 H   0  0  0  0  0
   -2.5730   -0.5570   10.0420 H   0  0  0  0  0
   -1.6240   -1.4280    8.8130 H   0  0  0  0  0
   -1.8030    1.6040    9.1040 H   0  0  0  0  0
   -2.6310    0.6300    7.8660 H   0  0  0  0  0
   -0.7670    2.7920    7.4760 H   0  0  0  0  0
   -1.5950    1.8170    6.2390 H   0  0  0  0  0
    1.4270    2.0940    6.5570 H   0  0  0  0  0
    0.4370    2.8930    5.3110 H   0  0  0  0  0
    2.6620    1.1010    4.9390 H   0  0  0  0  0
    1.6710    1.8990    3.6930 H   0  0  0  0  0
    2.0450   -1.1130    4.0100 H   0  0  0  0  0
    2.8210   -0.0950    2.7730 H   0  0  0  0  0
    1.1060   -2.3770    2.3810 H   0  0  0  0  0
    1.8830   -1.3590    1.1440 H   0  0  0  0  0
   -1.1180   -1.8310    1.4330 H   0  0  0  0  0
   -0.0650   -2.5720    0.2040 H   0  0  0  0  0
   -2.3980   -0.9320   -0.2040 H   0  0  0  0  0
   -1.3440   -1.6720   -1.4330 H   0  0  0  0  0
   -1.9170    1.3110   -1.1440 H   0  0  0  0  0
   -2.6110    0.2360   -2.3810 H   0  0  0  0  0
   -1.0450    2.6220   -2.7730 H   0  0  0  0  0
   -1.7400    1.5470   -4.0100 H   0  0  0  0  0
    1.2200    2.2160   -3.6930 H   0  0  0  0  0
    0.1340    2.8770   -4.9390 H   0  0  0  0  0
    2.5730    1.3910   -5.3110 H   0  0  0  0  0
    1.4870    2.0520   -6.5570 H   0  0  0  0  0
    2.2500   -0.8850   -6.2390 H   0  0  0  0  0
    2.8870    0.2230   -7.4760 H   0  0  0  0  0
    1.4840   -2.2620   -7.8660 H   0  0  0  0  0
    2.1200   -1.1530   -9.1040 H   0  0  0  0  0
   -0.7930   -2.0120   -8.8130 H   0  0  0  0  0
    0.3470   -2.6090  -10.0420 H   0  0  0  0  0
   -2.1800   -1.2880  -10.4510 H   0  0  0  0  0
   -1.0390   -1.8860  -11.6800 H   0  0  0  0  0
   -1.9960    0.9970  -11.3930 H   0  0  0  0  0
   -2.5450   -0.1590  -12.6290 H   0  0  0  0  0
   -0.8720    1.2160  -13.3790 H   0  0  0  0  0
  1  2  1  0  0  0
  1 32  1  0  0  0
  2  3  1  0  0  0
  2 33  1  0  0  0
  2 34  1  0  0  0
  3  4  1  0  0  0
  3 35  1  0  0  0
  3 36  1  0  0  0
  4  5  1  0  0  0
  5  6  1  0  0  0
  5 37  1  0  0  0
  5 38  1  0  0  0
  6  7  1  0  0  0
  6 39  1  0  0  0
  6 40  1  0  0  0
  7  8  1  0  0  0
  8  9  1  0  0  0
  8 41  1  0  0  0
  8 42  1  0  0  0
  9 10  1  0  0  0
  9 43  1  0  0  0
  9 44  1  0  0  0
 10 11  1  0  0  0
 11 12  1  0  0  0
 11 45  1  0  0  0
 11 46  1  0  0  0
 12 13  1  0  0  0
 12 47  1  0  0  0
 12 48  1  0  0  0
 13 14  1  0  0  0
 14 15  1  0  0  0
 14 49  1  0  0  0
 14 50  1  0  0  0
 15 16  1  0  0  0
 15 51  1  0  0  0
 15 52  1  0  0  0
 16 17  1  0  0  0
 17 18  1  0  0  0
 17 53  1  0  0  0
 17 54  1  0  0  0
 18 19  1  0  0  0
 18 55  1  0  0  0
 18 56  1  0  0  0
 19 20  1  0  0  0
 20 21  1  0  0  0
 20 57  1  0  0  0
 20 58  1  0  0  0
 21 22  1  0  0  0
 21 59  1  0  0  0
 21 60  1  0  0  0
 22 23  1  0  0  0
 23 24  1  0  0  0
 23 61  1  0  0  0
 23 62  1  0  0  0
 24 25  1  0  0  0
 24 63  1  0  0  0
 24 64  1  0  0  0
 25 26  1  0  0  0
 26 27  1  0  0  0
 26 65  1  0  0  0
 26 66  1  0  0  0
 27 28  1  0  0  0
 27 67  1  0  0  0
 27 68  1  0  0  0
 28 29  1  0  0  0
 29 30  1  0  0  0
 29 69  1  0  0  0
 29 70  1  0  0  0
 30 31  1  0  0  0
 30 71  1  0  0  0
 30 72  1  0  0  0
 31 73  1  0  0  0
M  END
$$$$
