ZAP
  CCTOOLS-1004241128

 43 44  0  0  1  0  0  0  0  0999 V2000
    2.4150    0.1890    5.4850 C   0  0  0  0  0
    1.5320   -0.0050    4.3110 C   0  0  0  0  0
    1.6480    0.8330    3.2030 C   0  0  0  0  0
    0.8230    0.6470    2.1120 C   0  0  0  0  0
   -0.1160   -0.3670    2.1170 C   0  0  0  0  0
   -0.2360   -1.2010    3.2150 C   0  0  0  0  0
    0.5870   -1.0300    4.3080 C   0  0  0  0  0
   -1.0140   -0.5640    0.9230 C   0  0  0  0  0
   -0.5910   -0.7250   -1.4700 C   0  0  0  0  0
   -0.2470   -0.9660   -3.8570 C   0  0  0  0  0
    0.6020   -0.3480   -4.9380 C   0  0  0  0  0
    1.8450   -0.8800   -5.2280 C   0  0  0  0  0
    2.6240   -0.3140   -6.2190 C   0  0  0  0  0
    2.1610    0.7830   -6.9210 C   0  0  0  0  0
    0.9180    1.3140   -6.6310 C   0  0  0  0  0
    0.1370    0.7450   -5.6430 C   0  0  0  0  0
    3.3000    1.1430    5.4830 N   0  0  0  0  0
    2.2980   -0.6400    6.5790 N   0  0  0  0  0
   -0.3140   -0.1370   -0.2890 N   0  0  0  0  0
   -1.4220   -1.6100   -1.5280 O   0  0  0  0  0
    0.0510   -0.3320   -2.5850 O   0  0  0  0  0
   -3.2370   -0.0040    2.3580 O   0  0  0  0  0
   -2.1380    1.9840    1.2580 O   0  0  0  0  0
   -3.4890    0.2160   -0.1430 O   0  0  0  0  0
   -2.5290    0.4270    1.1320 P   0  0  0  0  0
    2.3810    1.6250    3.1980 H   0  0  0  0  0
    0.9110    1.2950    1.2530 H   0  0  0  0  0
   -0.9720   -1.9920    3.2130 H   0  0  0  0  0
    0.4930   -1.6820    5.1640 H   0  0  0  0  0
   -1.2790   -1.6180    0.8380 H   0  0  0  0  0
   -0.0320   -2.0320   -3.7910 H   0  0  0  0  0
   -1.3000   -0.8210   -4.0960 H   0  0  0  0  0
    2.2070   -1.7370   -4.6800 H   0  0  0  0  0
    3.5960   -0.7280   -6.4460 H   0  0  0  0  0
    2.7700    1.2260   -7.6950 H   0  0  0  0  0
    0.5560    2.1720   -7.1790 H   0  0  0  0  0
   -0.8330    1.1600   -5.4160 H   0  0  0  0  0
    3.3820    1.7270    4.7130 H   0  0  0  0  0
    2.8760   -0.5130    7.3480 H   0  0  0  0  0
    1.6360   -1.3490    6.5820 H   0  0  0  0  0
    0.3490    0.5680   -0.2430 H   0  0  0  0  0
   -2.9660    2.4720    1.3670 H   0  0  0  0  0
   -2.9910    0.5090   -0.9180 H   0  0  0  0  0
  1  2  1  0  0  0
  1 17  2  0  0  0
  1 18  1  0  0  0
  2  3  2  0  0  0
  2  7  1  0  0  0
  3  4  1  0  0  0
  3 26  1  0  0  0
  4  5  2  0  0  0
  4 27  1  0  0  0
  5  6  1  0  0  0
  5  8  1  0  0  0
  6  7  2  0  0  0
  6 28  1  0  0  0
  7 29  1  0  0  0
  8 19  1  0  0  0
  8 25  1  0  0  0
  8 30  1  0  0  0
  9 19  1  0  0  0
  9 20  2  0  0  0
  9 21  1  0  0  0
 10 11  1  0  0  0
 10 21  1  0  0  0
 10 31  1  0  0  0
 10 32  1  0  0  0
 11 12  2  0  0  0
 11 16  1  0  0  0
 12 13  1  0  0  0
 12 33  1  0  0  0
 13 14  2  0  0  0
 13 34  1  0  0  0
 14 15  1  0  0  0
 14 35  1  0  0  0
 15 16  2  0  0  0
 15 36  1  0  0  0
 16 37  1  0  0  0
 17 38  1  0  0  0
 18 39  1  0  0  0
 18 40  1  0  0  0
 19 41  1  0  0  0
 22 25  2  0  0  0
 23 25  1  0  0  0
 23 42  1  0  0  0
 24 25  1  0  0  0
 24 43  1  0  0  0
M  END
$$$$
