ZEN
  CCTOOLS-0919241042

 61 65  0  0  0  0  0  0  0  0999 V2000
   -3.3420    0.8150    8.7740 N   0  0  0  0  0
   -2.1250    1.2920    8.9540 C   0  0  0  0  0
   -1.0850    0.9050    8.1350 C   0  0  0  0  0
   -2.6370   -0.4770    6.9460 C   0  0  0  0  0
   -3.6190   -0.0440    7.8120 C   0  0  0  0  0
   -1.3360   -0.0020    7.1050 C   0  0  0  0  0
   -0.3150   -0.4180    6.2560 N   0  0  0  0  0
   -0.9150   -1.3580    5.3040 C   0  0  0  0  0
    0.1500   -1.8570    4.3270 C   0  0  0  0  0
    1.2310    0.3800    4.5300 C   0  0  0  0  0
    0.1080    0.7620    5.4960 C   0  0  0  0  0
    0.7100   -0.6670    3.5410 C   0  0  0  0  0
    1.8380   -1.1320    2.6570 C   0  0  0  0  0
    2.4700   -2.1250    2.9520 O   0  0  0  0  0
    2.1460   -0.4450    1.5390 N   0  0  0  0  0
    3.1610   -0.9510    0.6060 C   0  0  0  0  0
    2.5350   -1.0540   -0.7900 C   0  0  0  0  0
    0.8490    0.7230   -0.1600 C   0  0  0  0  0
    1.4710    0.8240    1.2320 C   0  0  0  0  0
    1.8610    0.2140   -1.0970 N   0  0  0  0  0
    2.2390    1.0590   -2.4700 S   0  0  0  0  0
    3.5420    0.6310   -2.8400 O   0  0  0  0  0
    1.8550    2.4030   -2.2150 O   0  0  0  0  0
    1.1680    0.4910   -3.7490 C   0  0  0  0  0
   -0.0300    1.1060   -3.9430 C   0  0  0  0  0
    1.5620   -0.5800   -4.5480 C   0  0  0  0  0
    0.7590   -1.0430   -5.5450 C   0  0  0  0  0
   -0.8860    0.6560   -4.9620 C   0  0  0  0  0
   -0.4860   -0.4330   -5.7740 C   0  0  0  0  0
   -1.3440   -0.8880   -6.7900 C   0  0  0  0  0
   -2.9350    0.8030   -6.1870 C   0  0  0  0  0
   -2.1310    1.2660   -5.1910 C   0  0  0  0  0
   -2.5410   -0.2690   -6.9870 C   0  0  0  0  0
   -3.5960   -0.8280   -8.2470 CL  0  0  0  0  0
   -1.9400    1.9940    9.7540 H   0  0  0  0  0
   -0.0910    1.2980    8.2880 H   0  0  0  0  0
   -2.8710   -1.1800    6.1600 H   0  0  0  0  0
   -4.6290   -0.4100    7.6990 H   0  0  0  0  0
   -1.7080   -0.8550    4.7500 H   0  0  0  0  0
   -1.3350   -2.2050    5.8460 H   0  0  0  0  0
   -0.2950   -2.5720    3.6360 H   0  0  0  0  0
    0.9550   -2.3380    4.8810 H   0  0  0  0  0
    2.0690   -0.0330    5.0910 H   0  0  0  0  0
    1.5590    1.2640    3.9840 H   0  0  0  0  0
   -0.7370    1.1530    4.9320 H   0  0  0  0  0
    0.4680    1.5260    6.1850 H   0  0  0  0  0
   -0.0780   -0.2310    2.9280 H   0  0  0  0  0
    3.4970   -1.9360    0.9290 H   0  0  0  0  0
    4.0070   -0.2640    0.5770 H   0  0  0  0  0
    1.8100   -1.8670   -0.8060 H   0  0  0  0  0
    3.3150   -1.2420   -1.5280 H   0  0  0  0  0
    0.5140    1.7090   -0.4830 H   0  0  0  0  0
    0.0030    0.0360   -0.1350 H   0  0  0  0  0
    0.6910    1.0110    1.9700 H   0  0  0  0  0
    2.1970    1.6370    1.2490 H   0  0  0  0  0
   -0.3210    1.9360   -3.3160 H   0  0  0  0  0
    2.5180   -1.0500   -4.3740 H   0  0  0  0  0
    1.0770   -1.8740   -6.1570 H   0  0  0  0  0
   -1.0540   -1.7200   -7.4140 H   0  0  0  0  0
   -3.8910    1.2740   -6.3610 H   0  0  0  0  0
   -2.4490    2.0980   -4.5800 H   0  0  0  0  0
  1  2  2  0  0  0
  1  5  1  0  0  0
  2  3  1  0  0  0
  2 35  1  0  0  0
  3  6  2  0  0  0
  3 36  1  0  0  0
  4  5  2  0  0  0
  4  6  1  0  0  0
  4 37  1  0  0  0
  5 38  1  0  0  0
  6  7  1  0  0  0
  7  8  1  0  0  0
  7 11  1  0  0  0
  8  9  1  0  0  0
  8 39  1  0  0  0
  8 40  1  0  0  0
  9 12  1  0  0  0
  9 41  1  0  0  0
  9 42  1  0  0  0
 10 11  1  0  0  0
 10 12  1  0  0  0
 10 43  1  0  0  0
 10 44  1  0  0  0
 11 45  1  0  0  0
 11 46  1  0  0  0
 12 13  1  0  0  0
 12 47  1  0  0  0
 13 14  2  0  0  0
 13 15  1  0  0  0
 15 16  1  0  0  0
 15 19  1  0  0  0
 16 17  1  0  0  0
 16 48  1  0  0  0
 16 49  1  0  0  0
 17 20  1  0  0  0
 17 50  1  0  0  0
 17 51  1  0  0  0
 18 19  1  0  0  0
 18 20  1  0  0  0
 18 52  1  0  0  0
 18 53  1  0  0  0
 19 54  1  0  0  0
 19 55  1  0  0  0
 20 21  1  0  0  0
 21 22  2  0  0  0
 21 23  2  0  0  0
 21 24  1  0  0  0
 24 25  2  0  0  0
 24 26  1  0  0  0
 25 28  1  0  0  0
 25 56  1  0  0  0
 26 27  2  0  0  0
 26 57  1  0  0  0
 27 29  1  0  0  0
 27 58  1  0  0  0
 28 29  2  0  0  0
 28 32  1  0  0  0
 29 30  1  0  0  0
 30 33  2  0  0  0
 30 59  1  0  0  0
 31 32  2  0  0  0
 31 33  1  0  0  0
 31 60  1  0  0  0
 32 61  1  0  0  0
 33 34  1  0  0  0
M  END
$$$$
