0CB
  CCTOOLS-0919241028

 69 72  0  0  0  0  0  0  0  0999 V2000
   -3.7060   -4.2470    0.1200 C   0  0  0  0  0
   -2.7330   -5.1240    0.4750 C   0  0  0  0  0
   -1.0040   -3.5890   -0.2470 C   0  0  0  0  0
   -0.3350   -5.7820    0.6920 C   0  0  0  0  0
   -4.3500   -2.0760   -0.8100 C   0  0  0  0  0
   -3.9860   -0.8780   -1.3450 C   0  0  0  0  0
   -2.6440   -0.5520   -1.5270 C   0  0  0  0  0
   -1.6580   -1.4220   -1.1760 C   0  0  0  0  0
   -1.9950   -2.6690   -0.6200 C   0  0  0  0  0
   -3.3620   -3.0010   -0.4350 C   0  0  0  0  0
   -4.0120    2.9510   -1.5980 O   0  0  0  0  0
   -3.1650    2.7380   -0.4770 S   0  0  0  0  0
   -2.4550    3.8140    0.1200 O   0  0  0  0  0
   -4.0200    1.7600    0.7890 C   0  0  0  0  0
   -4.9950    2.6380    1.5300 C   0  0  0  0  0
   -5.7440    2.1250    2.5180 O   0  0  0  0  0
   -5.1020    3.8050    1.2340 O   0  0  0  0  0
   -1.9800    1.7320   -1.0460 N   0  0  0  0  0
   -2.2780    0.7830   -2.1220 C   0  0  0  0  0
   -1.3750   -4.8060    0.2960 C   0  0  0  0  0
   -0.6980   -6.9960    1.2340 N   0  0  0  0  0
    0.9250   -5.4930    0.5290 N   0  0  0  0  0
   -0.6920    1.7880   -0.5000 C   0  0  0  0  0
   -0.5100    2.2250    0.8050 C   0  0  0  0  0
    0.7600    2.2800    1.3440 C   0  0  0  0  0
    1.8540    1.8990    0.5810 C   0  0  0  0  0
    1.6730    1.4620   -0.7230 C   0  0  0  0  0
    0.4030    1.4010   -1.2610 C   0  0  0  0  0
    3.1050    1.9530    1.1120 O   0  0  0  0  0
    4.1920    1.6080    0.2500 C   0  0  0  0  0
    4.3690    0.0880    0.2380 C   0  0  0  0  0
    5.5110   -0.2810   -0.7140 C   0  0  0  0  0
    6.7150    0.4640   -0.3190 N   0  0  0  0  0
    7.8930   -0.1920   -0.0780 C   0  0  0  0  0
    9.0870    0.5700    0.4370 C   0  0  0  0  0
    7.9820   -1.4640   -0.2920 N   0  0  0  0  0
    6.6300    1.9250   -0.1880 C   0  0  0  0  0
    5.4750    2.2690    0.7570 C   0  0  0  0  0
   -4.7450   -4.5070    0.2600 H   0  0  0  0  0
   -3.0050   -6.0790    0.9000 H   0  0  0  0  0
    0.0400   -3.3500   -0.3820 H   0  0  0  0  0
   -5.3950   -2.3150   -0.6740 H   0  0  0  0  0
   -4.7490   -0.1700   -1.6320 H   0  0  0  0  0
   -0.6210   -1.1570   -1.3240 H   0  0  0  0  0
   -4.5580    0.9400    0.3130 H   0  0  0  0  0
   -3.2890    1.3560    1.4900 H   0  0  0  0  0
   -6.3550    2.7270    2.9640 H   0  0  0  0  0
   -1.4010    0.6690   -2.7600 H   0  0  0  0  0
   -3.1130    1.1580   -2.7150 H   0  0  0  0  0
   -1.6360   -7.2110    1.3560 H   0  0  0  0  0
   -0.0160   -7.6350    1.4940 H   0  0  0  0  0
    1.6070   -6.1320    0.7890 H   0  0  0  0  0
   -1.3620    2.5220    1.3990 H   0  0  0  0  0
    0.9020    2.6200    2.3590 H   0  0  0  0  0
    2.5260    1.1660   -1.3160 H   0  0  0  0  0
    0.2620    1.0610   -2.2760 H   0  0  0  0  0
    3.9780    1.9570   -0.7610 H   0  0  0  0  0
    4.6070   -0.2590    1.2430 H   0  0  0  0  0
    3.4460   -0.3830   -0.1010 H   0  0  0  0  0
    5.7070   -1.3520   -0.6520 H   0  0  0  0  0
    5.2360   -0.0170   -1.7350 H   0  0  0  0  0
    9.0760    0.5710    1.5270 H   0  0  0  0  0
   10.0020    0.0940    0.0830 H   0  0  0  0  0
    9.0480    1.5970    0.0730 H   0  0  0  0  0
    7.2460   -1.9370   -0.7110 H   0  0  0  0  0
    7.5640    2.3100    0.2210 H   0  0  0  0  0
    6.4460    2.3690   -1.1660 H   0  0  0  0  0
    5.3400    3.3500    0.7880 H   0  0  0  0  0
    5.7020    1.9020    1.7580 H   0  0  0  0  0
  1  2  2  0  0  0
  1 10  1  0  0  0
  1 39  1  0  0  0
  2 20  1  0  0  0
  2 40  1  0  0  0
  3 41  1  0  0  0
  4 21  1  0  0  0
  5 10  2  0  0  0
  5  6  1  0  0  0
  5 42  1  0  0  0
  6  7  2  0  0  0
  6 43  1  0  0  0
  7  8  1  0  0  0
  7 19  1  0  0  0
  8 44  1  0  0  0
  9  3  1  0  0  0
  9  8  2  0  0  0
 10  9  1  0  0  0
 11 12  2  0  0  0
 12 14  1  0  0  0
 13 12  2  0  0  0
 14 45  1  0  0  0
 14 46  1  0  0  0
 15 16  1  0  0  0
 15 14  1  0  0  0
 16 47  1  0  0  0
 17 15  2  0  0  0
 18 12  1  0  0  0
 18 23  1  0  0  0
 19 18  1  0  0  0
 19 48  1  0  0  0
 19 49  1  0  0  0
 20  4  1  0  0  0
 20  3  2  0  0  0
 21 50  1  0  0  0
 21 51  1  0  0  0
 22  4  2  0  0  0
 22 52  1  0  0  0
 23 24  2  0  0  0
 24 25  1  0  0  0
 24 53  1  0  0  0
 25 54  1  0  0  0
 26 29  1  0  0  0
 26 25  2  0  0  0
 27 26  1  0  0  0
 27 55  1  0  0  0
 28 27  2  0  0  0
 28 23  1  0  0  0
 28 56  1  0  0  0
 29 30  1  0  0  0
 30 38  1  0  0  0
 30 57  1  0  0  0
 31 30  1  0  0  0
 31 58  1  0  0  0
 31 59  1  0  0  0
 32 31  1  0  0  0
 32 33  1  0  0  0
 32 60  1  0  0  0
 32 61  1  0  0  0
 33 34  1  0  0  0
 33 37  1  0  0  0
 34 36  2  0  0  0
 35 34  1  0  0  0
 35 62  1  0  0  0
 35 63  1  0  0  0
 35 64  1  0  0  0
 36 65  1  0  0  0
 37 38  1  0  0  0
 37 66  1  0  0  0
 37 67  1  0  0  0
 38 68  1  0  0  0
 38 69  1  0  0  0
M  END
$$$$
