0ZG
  CCTOOLS-0919241031

 58 60  0  0  1  0  0  0  0  0999 V2000
   -0.1360    1.9280    0.3060 S   0  0  0  0  0
   -0.5460    1.4920    1.5950 O   0  0  0  0  0
   -0.6010    3.1300   -0.2930 O   0  0  0  0  0
    1.6220    2.0440    0.3560 C   0  0  0  0  0
    2.2850    2.8740   -0.5280 C   0  0  0  0  0
    3.6640    2.9660   -0.4880 C   0  0  0  0  0
    4.3790    2.2270    0.4360 C   0  0  0  0  0
    3.7160    1.3980    1.3210 C   0  0  0  0  0
    2.3370    1.3100    1.2840 C   0  0  0  0  0
    5.8820    2.3260    0.4790 C   0  0  0  0  0
    1.8100   -2.1540   -0.8050 N   0  0  0  0  0
    3.0560   -2.5150   -1.4940 C   0  0  0  0  0
    4.1300   -2.8170   -0.4440 C   0  0  0  0  0
    3.6100   -3.8880    0.5190 C   0  0  0  0  0
    2.3630   -3.3670    1.2380 C   0  0  0  0  0
    1.2700   -3.0720    0.2070 C   0  0  0  0  0
   -0.5160    0.7050   -0.7440 N   0  0  0  0  0
   -0.1370   -0.6750   -0.4290 C   0  0  0  0  0
    1.1760   -0.9990   -1.0930 C   0  0  0  0  0
    1.6640   -0.2210   -1.8850 O   0  0  0  0  0
   -1.2170   -1.6300   -0.9430 C   0  0  0  0  0
   -2.4990   -1.3920   -0.1860 C   0  0  0  0  0
   -3.4140   -0.4730   -0.6540 C   0  0  0  0  0
   -2.7570   -2.1010    0.9740 C   0  0  0  0  0
   -4.6000   -0.2540    0.0470 C   0  0  0  0  0
   -3.9310   -1.8890    1.6740 C   0  0  0  0  0
   -4.8520   -0.9670    1.2180 C   0  0  0  0  0
   -5.5870    0.7320   -0.4500 C   0  0  0  0  0
   -5.3480    1.3970   -1.5440 N   0  0  0  0  0
   -6.7570    0.9460    0.2450 N   0  0  0  0  0
    1.7260    3.4510   -1.2500 H   0  0  0  0  0
    4.1820    3.6140   -1.1790 H   0  0  0  0  0
    4.2750    0.8210    2.0430 H   0  0  0  0  0
    1.8180    0.6650    1.9780 H   0  0  0  0  0
    6.1750    3.1240    1.1610 H   0  0  0  0  0
    6.2990    1.3810    0.8250 H   0  0  0  0  0
    6.2600    2.5460   -0.5200 H   0  0  0  0  0
    2.8900   -3.3980   -2.1110 H   0  0  0  0  0
    3.3820   -1.6850   -2.1210 H   0  0  0  0  0
    5.0310   -3.1790   -0.9380 H   0  0  0  0  0
    4.3600   -1.9080    0.1130 H   0  0  0  0  0
    3.3570   -4.7870   -0.0420 H   0  0  0  0  0
    4.3810   -4.1220    1.2520 H   0  0  0  0  0
    2.0070   -4.1210    1.9400 H   0  0  0  0  0
    2.6100   -2.4540    1.7790 H   0  0  0  0  0
    0.4160   -2.6090    0.7020 H   0  0  0  0  0
    0.9580   -4.0000   -0.2720 H   0  0  0  0  0
   -0.9890    0.9020   -1.5670 H   0  0  0  0  0
   -0.0370   -0.7870    0.6500 H   0  0  0  0  0
   -1.3840   -1.4520   -2.0050 H   0  0  0  0  0
   -0.8920   -2.6590   -0.7930 H   0  0  0  0  0
   -3.2130    0.0770   -1.5620 H   0  0  0  0  0
   -2.0390   -2.8230    1.3340 H   0  0  0  0  0
   -4.1280   -2.4450    2.5780 H   0  0  0  0  0
   -5.7680   -0.8020    1.7660 H   0  0  0  0  0
   -5.9950    2.0430   -1.8700 H   0  0  0  0  0
   -6.9340    0.4510    1.0600 H   0  0  0  0  0
   -7.4030    1.5920   -0.0810 H   0  0  0  0  0
  1  2  2  0  0  0
  1  4  1  0  0  0
  1 17  1  0  0  0
  1  3  2  0  0  0
  4  5  2  0  0  0
  4  9  1  0  0  0
  5  6  1  0  0  0
  5 31  1  0  0  0
  6  7  2  0  0  0
  6 32  1  0  0  0
  7  8  1  0  0  0
  7 10  1  0  0  0
  8  9  2  0  0  0
  8 33  1  0  0  0
  9 34  1  0  0  0
 10 35  1  0  0  0
 10 36  1  0  0  0
 10 37  1  0  0  0
 11 12  1  0  0  0
 11 16  1  0  0  0
 11 19  1  0  0  0
 12 13  1  0  0  0
 12 38  1  0  0  0
 12 39  1  0  0  0
 13 14  1  0  0  0
 13 40  1  0  0  0
 13 41  1  0  0  0
 14 15  1  0  0  0
 14 42  1  0  0  0
 14 43  1  0  0  0
 15 16  1  0  0  0
 15 44  1  0  0  0
 15 45  1  0  0  0
 16 46  1  0  0  0
 16 47  1  0  0  0
 17 18  1  0  0  0
 17 48  1  0  0  0
 18 19  1  0  0  0
 18 21  1  0  0  0
 18 49  1  0  0  0
 19 20  2  0  0  0
 21 22  1  0  0  0
 21 50  1  0  0  0
 21 51  1  0  0  0
 22 23  2  0  0  0
 22 24  1  0  0  0
 23 25  1  0  0  0
 23 52  1  0  0  0
 24 26  2  0  0  0
 24 53  1  0  0  0
 25 27  2  0  0  0
 25 28  1  0  0  0
 26 27  1  0  0  0
 26 54  1  0  0  0
 27 55  1  0  0  0
 28 29  2  0  0  0
 28 30  1  0  0  0
 29 56  1  0  0  0
 30 57  1  0  0  0
 30 58  1  0  0  0
M  END
$$$$
