0ZW
  CCTOOLS-1004241122

 77 76  0  0  1  0  0  0  0  0999 V2000
    6.5810   -0.3390    1.4050 O   0  0  0  0  0
    6.4900    0.2630    0.3530 C   0  0  0  0  0
    7.6030    0.6120   -0.3200 O   0  0  0  0  0
    8.8750    0.2350    0.2690 C   0  0  0  0  0
    8.9410   -1.2860    0.4120 C   0  0  0  0  0
   10.0160    0.7130   -0.6320 C   0  0  0  0  0
    9.0100    0.8830    1.6490 C   0  0  0  0  0
    5.2770    0.5770   -0.1420 N   0  0  0  0  0
    4.0660    0.1920    0.5880 C   0  0  0  0  0
    2.9130    0.0810   -0.3750 C   0  0  0  0  0
    3.0850    0.3010   -1.5550 O   0  0  0  0  0
    3.7480    1.2530    1.6440 C   0  0  0  0  0
    1.6900   -0.2640    0.0740 N   0  0  0  0  0
    0.5690   -0.3720   -0.8620 C   0  0  0  0  0
   -0.7260   -0.1550   -0.1230 C   0  0  0  0  0
   -0.7660   -0.2850    1.0820 O   0  0  0  0  0
    0.5670   -1.7650   -1.4960 C   0  0  0  0  0
    1.8260   -1.9390   -2.3480 C   0  0  0  0  0
    0.5450   -2.8260   -0.3950 C   0  0  0  0  0
   -1.8410    0.1840   -0.8010 N   0  0  0  0  0
   -3.0740    0.4950   -0.0740 C   0  0  0  0  0
   -3.7090    1.7560   -0.6630 C   0  0  0  0  0
   -4.9970    2.0810    0.0960 C   0  0  0  0  0
   -5.6320    3.3420   -0.4930 C   0  0  0  0  0
   -6.9200    3.6670    0.2660 C   0  0  0  0  0
   -7.5300    4.8780   -0.2990 N   0  3  0  0  0
   -4.0760   -0.7060   -0.2070 B   0  0  0  0  0
   -3.7090   -1.8590   -0.9500 O   0  0  0  0  0
   -6.1580   -1.8020    0.2140 C   0  0  0  0  0
   -5.3500   -0.6400    0.4170 O   0  0  0  0  0
   -7.5000   -1.6210    0.9270 C   0  0  0  0  0
   -8.3650   -2.8640    0.7090 C   0  0  0  0  0
   -9.6180   -2.6950    1.3750 O   0  0  0  0  0
    8.8450   -1.7480   -0.5710 H   0  0  0  0  0
    9.8970   -1.5690    0.8540 H   0  0  0  0  0
    8.1290   -1.6270    1.0540 H   0  0  0  0  0
    9.9690    1.7970   -0.7340 H   0  0  0  0  0
   10.9710    0.4310   -0.1900 H   0  0  0  0  0
    9.9200    0.2520   -1.6150 H   0  0  0  0  0
    8.1980    0.5430    2.2910 H   0  0  0  0  0
    9.9650    0.6010    2.0910 H   0  0  0  0  0
    8.9630    1.9670    1.5470 H   0  0  0  0  0
    5.2050    1.0580   -0.9810 H   0  0  0  0  0
    4.2260   -0.7690    1.0760 H   0  0  0  0  0
    3.5880    2.2150    1.1560 H   0  0  0  0  0
    2.8480    0.9670    2.1870 H   0  0  0  0  0
    4.5820    1.3340    2.3410 H   0  0  0  0  0
    1.5520   -0.4400    1.0180 H   0  0  0  0  0
    0.6730    0.3820   -1.6420 H   0  0  0  0  0
   -0.3160   -1.8760   -2.1260 H   0  0  0  0  0
    2.7040   -1.9360   -1.7030 H   0  0  0  0  0
    1.7730   -2.8860   -2.8850 H   0  0  0  0  0
    1.8980   -1.1190   -3.0630 H   0  0  0  0  0
   -0.3520   -2.7020    0.2120 H   0  0  0  0  0
    0.5440   -3.8190   -0.8470 H   0  0  0  0  0
    1.4280   -2.7150    0.2350 H   0  0  0  0  0
   -1.8260    0.2220   -1.7700 H   0  0  0  0  0
   -2.8440    0.6610    0.9780 H   0  0  0  0  0
   -3.0130    2.5900   -0.5710 H   0  0  0  0  0
   -3.9390    1.5900   -1.7150 H   0  0  0  0  0
   -5.6930    1.2470    0.0040 H   0  0  0  0  0
   -4.7670    2.2470    1.1480 H   0  0  0  0  0
   -4.9360    4.1760   -0.4010 H   0  0  0  0  0
   -5.8620    3.1750   -1.5450 H   0  0  0  0  0
   -7.6160    2.8330    0.1740 H   0  0  0  0  0
   -6.6900    3.8330    1.3190 H   0  0  0  0  0
   -8.3790    5.0920    0.2010 H   0  0  0  0  0
   -6.8860    5.6500   -0.2140 H   0  0  0  0  0
   -7.7430    4.7240   -1.2730 H   0  0  0  0  0
   -4.3910   -2.5450   -0.9750 H   0  0  0  0  0
   -6.3290   -1.9430   -0.8530 H   0  0  0  0  0
   -5.6470   -2.6750    0.6190 H   0  0  0  0  0
   -7.3280   -1.4790    1.9940 H   0  0  0  0  0
   -8.0110   -0.7470    0.5220 H   0  0  0  0  0
   -8.5360   -3.0050   -0.3580 H   0  0  0  0  0
   -7.8530   -3.7370    1.1140 H   0  0  0  0  0
  -10.2180   -3.4470    1.2790 H   0  0  0  0  0
  1  2  2  0  0  0
  2  3  1  0  0  0
  2  8  1  0  0  0
  3  4  1  0  0  0
  4  5  1  0  0  0
  4  6  1  0  0  0
  4  7  1  0  0  0
  5 34  1  0  0  0
  5 35  1  0  0  0
  5 36  1  0  0  0
  6 37  1  0  0  0
  6 38  1  0  0  0
  6 39  1  0  0  0
  7 40  1  0  0  0
  7 41  1  0  0  0
  7 42  1  0  0  0
  8  9  1  0  0  0
  8 43  1  0  0  0
  9 10  1  0  0  0
  9 12  1  0  0  0
  9 44  1  0  0  0
 10 11  2  0  0  0
 10 13  1  0  0  0
 12 45  1  0  0  0
 12 46  1  0  0  0
 12 47  1  0  0  0
 13 14  1  0  0  0
 13 48  1  0  0  0
 14 15  1  0  0  0
 14 17  1  0  0  0
 14 49  1  0  0  0
 15 16  2  0  0  0
 15 20  1  0  0  0
 17 18  1  0  0  0
 17 19  1  0  0  0
 17 50  1  0  0  0
 18 51  1  0  0  0
 18 52  1  0  0  0
 18 53  1  0  0  0
 19 54  1  0  0  0
 19 55  1  0  0  0
 19 56  1  0  0  0
 20 21  1  0  0  0
 20 57  1  0  0  0
 21 22  1  0  0  0
 21 27  1  0  0  0
 21 58  1  0  0  0
 22 23  1  0  0  0
 22 59  1  0  0  0
 22 60  1  0  0  0
 23 24  1  0  0  0
 23 61  1  0  0  0
 23 62  1  0  0  0
 24 25  1  0  0  0
 24 63  1  0  0  0
 24 64  1  0  0  0
 25 26  1  0  0  0
 25 65  1  0  0  0
 25 66  1  0  0  0
 26 67  1  0  0  0
 26 68  1  0  0  0
 26 69  1  0  0  0
 27 28  1  0  0  0
 27 30  1  0  0  0
 28 70  1  0  0  0
 29 30  1  0  0  0
 29 31  1  0  0  0
 29 71  1  0  0  0
 29 72  1  0  0  0
 31 32  1  0  0  0
 31 73  1  0  0  0
 31 74  1  0  0  0
 32 33  1  0  0  0
 32 75  1  0  0  0
 32 76  1  0  0  0
 33 77  1  0  0  0
M  CHG  1  26   1
M  END
$$$$
