0ZX
  CCTOOLS-1004241122

 78 77  0  0  1  0  0  0  0  0999 V2000
    6.2270    0.4720    1.1570 O   0  0  0  0  0
    6.0400    0.5620   -0.0400 C   0  0  0  0  0
    7.0890    0.6580   -0.8790 O   0  0  0  0  0
    8.4130    0.6470   -0.2830 C   0  0  0  0  0
    8.6170   -0.6620    0.4820 C   0  0  0  0  0
    9.4690    0.7630   -1.3850 C   0  0  0  0  0
    8.5490    1.8280    0.6800 C   0  0  0  0  0
    4.7840    0.5610   -0.5290 N   0  0  0  0  0
    3.6440    0.4510    0.3840 C   0  0  0  0  0
    2.4650   -0.1310   -0.3540 C   0  0  0  0  0
    2.5680   -0.4250   -1.5260 O   0  0  0  0  0
    3.2790    1.8390    0.9140 C   0  0  0  0  0
    1.2960   -0.3250    0.2900 N   0  0  0  0  0
    0.1510   -0.8900   -0.4270 C   0  0  0  0  0
   -1.1260   -0.4580    0.2470 C   0  0  0  0  0
   -1.1310   -0.2070    1.4330 O   0  0  0  0  0
    0.2430   -2.4170   -0.4130 C   0  0  0  0  0
    0.0080   -2.9290    1.0100 C   0  0  0  0  0
   -0.8180   -3.0010   -1.3470 C   0  0  0  0  0
   -2.2630   -0.3510   -0.4690 N   0  0  0  0  0
   -3.4600    0.2350    0.1400 C   0  0  0  0  0
   -4.2250    1.0400   -0.9120 C   0  0  0  0  0
   -5.4520    1.6870   -0.2660 C   0  0  0  0  0
   -6.2820    2.3920   -1.3400 C   0  0  0  0  0
   -7.5090    3.0390   -0.6940 C   0  0  0  0  0
   -8.3060    3.7150   -1.7260 N   0  0  0  0  0
   -4.3790   -0.9110    0.6940 B   0  0  0  0  0
   -4.8550   -1.9240   -0.1800 O   0  0  0  0  0
   -4.3510   -1.8260   -1.5130 C   0  0  0  0  0
   -4.7980   -3.0470   -2.3190 C   0  0  0  0  0
   -4.7350   -0.9340    2.0680 O   0  0  0  0  0
   -4.2850    0.2060    2.8040 C   0  0  0  0  0
   -4.8280    0.1360    4.2330 C   0  0  0  0  0
    8.5210   -1.5030   -0.2040 H   0  0  0  0  0
    9.6110   -0.6700    0.9290 H   0  0  0  0  0
    7.8650   -0.7450    1.2670 H   0  0  0  0  0
    9.3230    1.6960   -1.9300 H   0  0  0  0  0
   10.4630    0.7550   -0.9370 H   0  0  0  0  0
    9.3720   -0.0780   -2.0710 H   0  0  0  0  0
    7.7960    1.7450    1.4650 H   0  0  0  0  0
    9.5420    1.8190    1.1270 H   0  0  0  0  0
    8.4030    2.7600    0.1350 H   0  0  0  0  0
    4.6360    0.6330   -1.4850 H   0  0  0  0  0
    3.9070   -0.1990    1.2180 H   0  0  0  0  0
    2.4300    1.7570    1.5930 H   0  0  0  0  0
    4.1310    2.2600    1.4470 H   0  0  0  0  0
    3.0150    2.4890    0.0800 H   0  0  0  0  0
    1.2140   -0.0900    1.2270 H   0  0  0  0  0
    0.1560   -0.5360   -1.4570 H   0  0  0  0  0
    1.2330   -2.7240   -0.7500 H   0  0  0  0  0
   -0.9510   -2.5610    1.3750 H   0  0  0  0  0
    0.0010   -4.0190    1.0070 H   0  0  0  0  0
    0.8060   -2.5730    1.6610 H   0  0  0  0  0
   -0.6080   -2.6960   -2.3720 H   0  0  0  0  0
   -0.8010   -4.0890   -1.2810 H   0  0  0  0  0
   -1.8020   -2.6350   -1.0540 H   0  0  0  0  0
   -2.2890   -0.6620   -1.3880 H   0  0  0  0  0
   -3.1660    0.8920    0.9580 H   0  0  0  0  0
   -3.5770    1.8160   -1.3190 H   0  0  0  0  0
   -4.5460    0.3760   -1.7150 H   0  0  0  0  0
   -6.0570    0.9190    0.2160 H   0  0  0  0  0
   -5.1280    2.4150    0.4790 H   0  0  0  0  0
   -5.6770    3.1600   -1.8220 H   0  0  0  0  0
   -6.6060    1.6640   -2.0850 H   0  0  0  0  0
   -8.1140    2.2710   -0.2120 H   0  0  0  0  0
   -7.1850    3.7670    0.0500 H   0  0  0  0  0
   -8.5640    3.0750   -2.4610 H   0  0  0  0  0
   -9.1230    4.1510   -1.3240 H   0  0  0  0  0
   -4.7360   -0.9200   -1.9820 H   0  0  0  0  0
   -3.2620   -1.7870   -1.4880 H   0  0  0  0  0
   -4.3420   -3.0170   -3.3090 H   0  0  0  0  0
   -4.4890   -3.9560   -1.8040 H   0  0  0  0  0
   -5.8840   -3.0380   -2.4200 H   0  0  0  0  0
   -3.1960    0.2150    2.8290 H   0  0  0  0  0
   -4.6460    1.1150    2.3220 H   0  0  0  0  0
   -5.9170    0.1270    4.2080 H   0  0  0  0  0
   -4.4680   -0.7730    4.7150 H   0  0  0  0  0
   -4.4840    1.0050    4.7940 H   0  0  0  0  0
  1  2  2  0  0  0
  2  3  1  0  0  0
  2  8  1  0  0  0
  3  4  1  0  0  0
  4  5  1  0  0  0
  4  6  1  0  0  0
  4  7  1  0  0  0
  5 34  1  0  0  0
  5 35  1  0  0  0
  5 36  1  0  0  0
  6 37  1  0  0  0
  6 38  1  0  0  0
  6 39  1  0  0  0
  7 40  1  0  0  0
  7 41  1  0  0  0
  7 42  1  0  0  0
  8  9  1  0  0  0
  8 43  1  0  0  0
  9 10  1  0  0  0
  9 12  1  0  0  0
  9 44  1  0  0  0
 10 11  2  0  0  0
 10 13  1  0  0  0
 12 45  1  0  0  0
 12 46  1  0  0  0
 12 47  1  0  0  0
 13 14  1  0  0  0
 13 48  1  0  0  0
 14 15  1  0  0  0
 14 17  1  0  0  0
 14 49  1  0  0  0
 15 16  2  0  0  0
 15 20  1  0  0  0
 17 18  1  0  0  0
 17 19  1  0  0  0
 17 50  1  0  0  0
 18 51  1  0  0  0
 18 52  1  0  0  0
 18 53  1  0  0  0
 19 54  1  0  0  0
 19 55  1  0  0  0
 19 56  1  0  0  0
 20 21  1  0  0  0
 20 57  1  0  0  0
 21 27  1  0  0  0
 21 58  1  0  0  0
 22 21  1  0  0  0
 22 59  1  0  0  0
 22 60  1  0  0  0
 23 22  1  0  0  0
 23 61  1  0  0  0
 23 62  1  0  0  0
 24 23  1  0  0  0
 24 63  1  0  0  0
 24 64  1  0  0  0
 25 24  1  0  0  0
 25 65  1  0  0  0
 25 66  1  0  0  0
 26 25  1  0  0  0
 26 67  1  0  0  0
 26 68  1  0  0  0
 27 31  1  0  0  0
 27 28  1  0  0  0
 28 29  1  0  0  0
 29 30  1  0  0  0
 29 69  1  0  0  0
 29 70  1  0  0  0
 30 71  1  0  0  0
 30 72  1  0  0  0
 30 73  1  0  0  0
 31 32  1  0  0  0
 32 74  1  0  0  0
 32 75  1  0  0  0
 33 32  1  0  0  0
 33 76  1  0  0  0
 33 77  1  0  0  0
 33 78  1  0  0  0
M  END
$$$$
