REMARK SMILES [H]/N=C(\N)c1ccc(CNC(=O)[C@@H]2CCCN2C(=O)CNC2CCCCCCC2)cc1
REMARK SMILES IDX 18 1 19 2 20 3 21 4 22 6 23 7 24 8 29 10 28 11 27 12 26 13
REMARK SMILES IDX 25 14 17 16 13 17 16 18 14 19 15 20 11 21 10 22 12 23 9 25
REMARK SMILES IDX 8 26 30 27 7 28 31 29 6 30 5 31 3 32 4 33 2 36 1 37
REMARK H PARENT 21 5 10 24 4 34 4 35
REMARK Flexibility Score:  112.900
ROOT
ATOM      1  C   UNL     1      -1.667   0.699  -0.185  1.00  0.00     0.237 C 
ATOM      2  O   UNL     1      -1.004  -0.287   0.057  1.00  0.00    -0.273 OA
ENDROOT
BRANCH   1   3
ATOM      3  C   UNL     1      -3.169   0.599  -0.255  1.00  0.00     0.182 C 
BRANCH   3   4
ATOM      4  N   UNL     1      -3.580  -0.787   0.004  1.00  0.00    -0.306 NA
ATOM      5  H   UNL     1      -3.130  -1.423  -0.638  1.00  0.00     0.123 HD
BRANCH   4   6
ATOM      6  C   UNL     1      -5.041  -0.923  -0.057  1.00  0.00     0.054 C 
BRANCH   6   7
ATOM      7  C   UNL     1      -5.477  -2.123   0.786  1.00  0.00     0.019 C 
BRANCH   7   8
ATOM      8  C   UNL     1      -6.554  -1.684   1.780  1.00  0.00     0.002 CG0
ATOM      9  G   UNL     1      -7.885  -1.512   1.046  1.00  0.00     0.000 G0
ENDBRANCH   7   8
ENDBRANCH   6   7
BRANCH   6  10
ATOM     10  C   UNL     1      -5.474  -1.135  -1.509  1.00  0.00     0.019 C 
BRANCH  10  11
ATOM     11  C   UNL     1      -6.908  -1.666  -1.541  1.00  0.00     0.002 C 
BRANCH  11  12
ATOM     12  C   UNL     1      -7.882  -0.523  -1.249  1.00  0.00     0.000 C 
BRANCH  12  13
ATOM     13  C   UNL     1      -7.862  -0.207   0.248  1.00  0.00     0.000 C 
BRANCH  13  14
ATOM     14  C   UNL     1      -7.885  -1.512   1.046  1.00  0.00     0.000 CG0
ATOM     15  G   UNL     1      -6.554  -1.684   1.780  1.00  0.00     0.000 G0
ENDBRANCH  13  14
ENDBRANCH  12  13
ENDBRANCH  11  12
ENDBRANCH  10  11
ENDBRANCH   6  10
ENDBRANCH   4   6
ENDBRANCH   3   4
ENDBRANCH   1   3
BRANCH   1  16
ATOM     16  N   UNL     1      -1.060   1.885  -0.391  1.00  0.00    -0.330 N 
ATOM     17  C   UNL     1       0.397   2.107  -0.445  1.00  0.00     0.174 C 
ATOM     18  C   UNL     1      -1.741   3.171  -0.600  1.00  0.00     0.120 C 
ATOM     19  C   UNL     1       0.584   3.600  -0.078  1.00  0.00     0.037 C 
ATOM     20  C   UNL     1      -0.647   4.247  -0.766  1.00  0.00     0.024 C 
BRANCH  17  21
ATOM     21  C   UNL     1       1.099   1.228   0.557  1.00  0.00     0.243 C 
ATOM     22  N   UNL     1       2.357   0.807   0.320  1.00  0.00    -0.350 N 
ATOM     23  O   UNL     1       0.530   0.896   1.576  1.00  0.00    -0.273 OA
ATOM     24  H   UNL     1       2.812   1.072  -0.495  1.00  0.00     0.163 HD
BRANCH  22  25
ATOM     25  C   UNL     1       3.037  -0.052   1.292  1.00  0.00     0.151 C 
BRANCH  25  26
ATOM     26  C   UNL     1       4.421  -0.379   0.792  1.00  0.00    -0.029 A 
ATOM     27  C   UNL     1       5.484   0.443   1.120  1.00  0.00     0.006 A 
ATOM     28  C   UNL     1       4.624  -1.503   0.011  1.00  0.00     0.006 A 
ATOM     29  C   UNL     1       6.753   0.150   0.665  1.00  0.00     0.012 A 
ATOM     30  C   UNL     1       5.888  -1.803  -0.455  1.00  0.00     0.012 A 
ATOM     31  C   UNL     1       6.963  -0.978  -0.127  1.00  0.00     0.016 A 
BRANCH  31  32
ATOM     32  C   UNL     1       8.323  -1.299  -0.619  1.00  0.00     0.122 C 
ATOM     33  N   UNL     1       8.527  -2.414  -1.401  1.00  0.00    -0.384 N 
ATOM     34  H   UNL     1       7.780  -2.989  -1.631  1.00  0.00     0.158 HD
ATOM     35  H   UNL     1       9.418  -2.624  -1.723  1.00  0.00     0.158 HD
BRANCH  32  36
ATOM     36  N   UNL     1       9.325  -0.527  -0.311  1.00  0.00    -0.284 NA
ATOM     37  H   UNL     1      10.216  -0.737  -0.633  1.00  0.00     0.189 HD
ENDBRANCH  32  36
ENDBRANCH  31  32
ENDBRANCH  25  26
ENDBRANCH  22  25
ENDBRANCH  17  21
ENDBRANCH   1  16
TORSDOF 9
