REMARK SMILES [H]/N=C(/N)c1ccc(CNC(=O)[C@@H]2CCCN2C(=O)CNC2CCCCCCC2)cc1C
REMARK SMILES IDX 18 1 19 2 20 3 21 4 22 6 23 7 24 8 29 10 28 11 27 12 26 13
REMARK SMILES IDX 25 14 17 16 13 17 16 18 14 19 15 20 11 21 10 22 12 23 9 25
REMARK SMILES IDX 8 26 7 27 30 28 6 29 31 30 5 31 32 32 3 33 4 34 2 37 1 38
REMARK H PARENT 21 5 10 24 4 35 4 36
REMARK Flexibility Score:  112.900
ROOT
ATOM      1  C   UNL     1      -1.513   0.918  -0.896  1.00  0.00     0.237 C 
ATOM      2  O   UNL     1      -0.786  -0.081  -0.899  1.00  0.00    -0.273 OA
ENDROOT
BRANCH   1   3
ATOM      3  C   UNL     1      -3.049   0.816  -0.844  1.00  0.00     0.182 C 
BRANCH   3   4
ATOM      4  N   UNL     1      -3.467  -0.590  -1.009  1.00  0.00    -0.306 NA
ATOM      5  H   UNL     1      -2.765  -1.171  -0.542  1.00  0.00     0.123 HD
BRANCH   4   6
ATOM      6  C   UNL     1      -4.813  -0.870  -0.474  1.00  0.00     0.054 C 
BRANCH   6   7
ATOM      7  C   UNL     1      -5.009  -2.401  -0.425  1.00  0.00     0.019 C 
BRANCH   7   8
ATOM      8  C   UNL     1      -5.676  -2.918   0.856  1.00  0.00     0.002 CG0
ATOM      9  G   UNL     1      -7.152  -2.579   1.070  1.00  0.00     0.000 G0
ENDBRANCH   7   8
ENDBRANCH   6   7
BRANCH   6  10
ATOM     10  C   UNL     1      -5.857  -0.157  -1.358  1.00  0.00     0.019 C 
BRANCH  10  11
ATOM     11  C   UNL     1      -7.321  -0.566  -1.208  1.00  0.00     0.002 C 
BRANCH  11  12
ATOM     12  C   UNL     1      -7.957  -0.303   0.153  1.00  0.00     0.000 C 
BRANCH  12  13
ATOM     13  C   UNL     1      -7.433  -1.102   1.346  1.00  0.00     0.000 C 
BRANCH  13  14
ATOM     14  C   UNL     1      -7.152  -2.579   1.070  1.00  0.00     0.000 CG0
ATOM     15  G   UNL     1      -5.676  -2.918   0.856  1.00  0.00     0.000 G0
ENDBRANCH  13  14
ENDBRANCH  12  13
ENDBRANCH  11  12
ENDBRANCH  10  11
ENDBRANCH   6  10
ENDBRANCH   4   6
ENDBRANCH   3   4
ENDBRANCH   1   3
BRANCH   1  16
ATOM     16  N   UNL     1      -0.975   2.186  -0.884  1.00  0.00    -0.330 N 
ATOM     17  C   UNL     1       0.473   2.374  -0.884  1.00  0.00     0.174 C 
ATOM     18  C   UNL     1      -1.675   3.455  -0.945  1.00  0.00     0.120 C 
ATOM     19  C   UNL     1       0.671   3.888  -1.028  1.00  0.00     0.037 C 
ATOM     20  C   UNL     1      -0.658   4.387  -1.582  1.00  0.00     0.024 C 
BRANCH  17  21
ATOM     21  C   UNL     1       1.085   1.897   0.449  1.00  0.00     0.243 C 
ATOM     22  N   UNL     1       2.205   1.107   0.293  1.00  0.00    -0.350 N 
ATOM     23  O   UNL     1       0.639   2.223   1.547  1.00  0.00    -0.273 OA
ATOM     24  H   UNL     1       2.285   0.608  -0.586  1.00  0.00     0.163 HD
BRANCH  22  25
ATOM     25  C   UNL     1       2.811   0.476   1.441  1.00  0.00     0.151 C 
BRANCH  25  26
ATOM     26  C   UNL     1       4.145  -0.114   1.065  1.00  0.00    -0.028 A 
ATOM     27  C   UNL     1       5.306   0.667   1.127  1.00  0.00     0.006 A 
ATOM     28  C   UNL     1       4.231  -1.430   0.582  1.00  0.00     0.009 A 
ATOM     29  C   UNL     1       6.534   0.136   0.735  1.00  0.00     0.012 A 
ATOM     30  C   UNL     1       5.458  -1.976   0.166  1.00  0.00    -0.040 A 
ATOM     31  C   UNL     1       6.613  -1.181   0.263  1.00  0.00     0.019 A 
ATOM     32  C   UNL     1       5.491  -3.383  -0.366  1.00  0.00     0.045 C 
BRANCH  31  33
ATOM     33  C   UNL     1       7.953  -1.689  -0.129  1.00  0.00     0.123 C 
ATOM     34  N   UNL     1       8.426  -2.856   0.389  1.00  0.00    -0.384 N 
ATOM     35  H   UNL     1       9.424  -2.953   0.232  1.00  0.00     0.158 HD
ATOM     36  H   UNL     1       8.151  -3.063   1.341  1.00  0.00     0.158 HD
BRANCH  33  37
ATOM     37  N   UNL     1       8.713  -1.041  -0.953  1.00  0.00    -0.284 NA
ATOM     38  H   UNL     1       8.236  -0.201  -1.296  1.00  0.00     0.189 HD
ENDBRANCH  33  37
ENDBRANCH  31  33
ENDBRANCH  25  26
ENDBRANCH  22  25
ENDBRANCH  17  21
ENDBRANCH   1  16
TORSDOF 9
