REMARK SMILES [H]/N=C(\N)c1ccc(CNC(=O)[C@@H]2CCCN2C(=O)CNC2CCCCCCC2)cn1
REMARK SMILES IDX 18 1 19 2 20 3 21 4 22 6 23 7 24 8 29 10 28 11 27 12 26 13
REMARK SMILES IDX 25 14 17 16 13 17 16 18 14 19 15 20 11 21 10 22 12 23 9 25
REMARK SMILES IDX 8 26 7 27 30 28 6 29 31 30 5 31 3 32 4 33 2 36 1 37
REMARK H PARENT 21 5 10 24 4 34 4 35
REMARK Flexibility Score:  112.900
ROOT
ATOM      1  C   UNL     1      -1.958   1.032   0.066  1.00  0.00     0.237 C 
ATOM      2  O   UNL     1      -1.565  -0.138   0.030  1.00  0.00    -0.273 OA
ENDROOT
BRANCH   1   3
ATOM      3  C   UNL     1      -3.392   1.410   0.479  1.00  0.00     0.182 C 
BRANCH   3   4
ATOM      4  N   UNL     1      -4.183   0.224   0.868  1.00  0.00    -0.306 NA
ATOM      5  H   UNL     1      -3.540  -0.392   1.375  1.00  0.00     0.123 HD
BRANCH   4   6
ATOM      6  C   UNL     1      -4.735  -0.518  -0.285  1.00  0.00     0.054 C 
BRANCH   6   7
ATOM      7  C   UNL     1      -4.968  -1.990   0.124  1.00  0.00     0.019 C 
BRANCH   7   8
ATOM      8  C   UNL     1      -6.102  -2.259   1.116  1.00  0.00     0.002 CG0
ATOM      9  G   UNL     1      -7.439  -2.646   0.471  1.00  0.00     0.000 G0
ENDBRANCH   7   8
ENDBRANCH   6   7
BRANCH   6  10
ATOM     10  C   UNL     1      -5.982   0.217  -0.816  1.00  0.00     0.019 C 
BRANCH  10  11
ATOM     11  C   UNL     1      -6.826  -0.588  -1.804  1.00  0.00     0.002 C 
BRANCH  11  12
ATOM     12  C   UNL     1      -8.227  -0.924  -1.295  1.00  0.00     0.000 C 
BRANCH  12  13
ATOM     13  C   UNL     1      -8.348  -1.468   0.128  1.00  0.00     0.000 C 
BRANCH  13  14
ATOM     14  C   UNL     1      -7.439  -2.646   0.471  1.00  0.00     0.000 CG0
ATOM     15  G   UNL     1      -6.102  -2.259   1.116  1.00  0.00     0.000 G0
ENDBRANCH  13  14
ENDBRANCH  12  13
ENDBRANCH  11  12
ENDBRANCH  10  11
ENDBRANCH   6  10
ENDBRANCH   4   6
ENDBRANCH   3   4
ENDBRANCH   1   3
BRANCH   1  16
ATOM     16  N   UNL     1      -1.114   2.077  -0.244  1.00  0.00    -0.330 N 
ATOM     17  C   UNL     1       0.294   1.833  -0.542  1.00  0.00     0.174 C 
ATOM     18  C   UNL     1      -1.441   3.485  -0.346  1.00  0.00     0.120 C 
ATOM     19  C   UNL     1       0.839   3.194  -0.995  1.00  0.00     0.037 C 
ATOM     20  C   UNL     1      -0.406   4.010  -1.327  1.00  0.00     0.024 C 
BRANCH  17  21
ATOM     21  C   UNL     1       1.067   1.369   0.712  1.00  0.00     0.243 C 
ATOM     22  N   UNL     1       2.245   0.704   0.425  1.00  0.00    -0.350 N 
ATOM     23  O   UNL     1       0.720   1.637   1.860  1.00  0.00    -0.273 OA
ATOM     24  H   UNL     1       2.332   0.287  -0.493  1.00  0.00     0.163 HD
BRANCH  22  25
ATOM     25  C   UNL     1       3.005   0.109   1.500  1.00  0.00     0.153 C 
BRANCH  25  26
ATOM     26  C   UNL     1       4.369  -0.302   1.030  1.00  0.00    -0.010 A 
ATOM     27  C   UNL     1       5.421   0.619   0.972  1.00  0.00     0.009 A 
ATOM     28  C   UNL     1       4.622  -1.603   0.602  1.00  0.00     0.117 A 
ATOM     29  C   UNL     1       6.671   0.212   0.514  1.00  0.00     0.032 A 
ATOM     30  N   UNL     1       5.819  -2.034   0.143  1.00  0.00    -0.253 NA
ATOM     31  C   UNL     1       6.818  -1.108   0.115  1.00  0.00     0.104 A 
BRANCH  31  32
ATOM     32  C   UNL     1       8.139  -1.624  -0.378  1.00  0.00     0.141 C 
ATOM     33  N   UNL     1       8.202  -2.899  -0.875  1.00  0.00    -0.382 N 
ATOM     34  H   UNL     1       7.338  -3.413  -0.685  1.00  0.00     0.158 HD
ATOM     35  H   UNL     1       9.009  -3.423  -0.563  1.00  0.00     0.158 HD
BRANCH  32  36
ATOM     36  N   UNL     1       9.208  -0.895  -0.320  1.00  0.00    -0.283 NA
ATOM     37  H   UNL     1       9.979  -1.425  -0.738  1.00  0.00     0.189 HD
ENDBRANCH  32  36
ENDBRANCH  31  32
ENDBRANCH  25  26
ENDBRANCH  22  25
ENDBRANCH  17  21
ENDBRANCH   1  16
TORSDOF 9
